/*---------------------------------------------------------------------------*\
| =========                 |                                                 |
| \\      /  F ield         | OpenFOAM: The Open Source CFD Toolbox           |
|  \\    /   O peration     | Version:  2206                                  |
|   \\  /    A nd           | Website:  www.openfoam.com                      |
|    \\/     M anipulation  |                                                 |
\*---------------------------------------------------------------------------*/
Build  : _8993af73-20221106 OPENFOAM=2206 patch=221104 version=2206
Arch   : "LSB;label=32;scalar=64"
Exec   : interFoam -parallel
Date   : Jul 29 2023
Time   : 14:34:20
Host   : dexcs-VirtualBox
PID    : 20611
I/O    : uncollated
Case   : /home/dexcs/Desktop/run/103_3dDamBreak/001_3dDamBreak_inerFoam
nProcs : 4
Hosts  :
(
    (dexcs-VirtualBox 4)
)
Pstream initialized with:
    floatTransfer      : 0
    nProcsSimpleSum    : 0
    commsType          : nonBlocking
    polling iterations : 0
trapFpe: Floating point exception trapping enabled (FOAM_SIGFPE).
fileModificationChecking : Monitoring run-time modified files using timeStampMaster (fileModificationSkew 5, maxFileModificationPolls 20)
allowSystemOperations : Allowing user-supplied system call operations

// * * * * * * * * * * * * * * * * * * * * * * * * * * * * * * * * * * * * * //
Create time

Create mesh for time = 0

Selecting dynamicFvMesh staticFvMesh

PIMPLE: Operating solver in PISO mode

Reading field p_rgh

Reading field U

Reading/calculating face flux field phi

Reading transportProperties

Selecting incompressible transport model Newtonian
Selecting incompressible transport model Newtonian
Selecting turbulence model type laminar
Selecting laminar stress model Stokes

Reading g

Reading hRef
Calculating field g.h

No MRF models present

No finite volume options present
DICPCG:  Solving for pcorr, Initial residual = 0, Final residual = 0, No Iterations 0
time step continuity errors : sum local = 0, global = 0, cumulative = 0
Courant Number mean: 0 max: 0

Starting time loop

Courant Number mean: 0 max: 0
Interface Courant Number mean: 0 max: 0
deltaT = 0.00120482
Time = 0.00120482

PIMPLE: iteration 1
smoothSolver:  Solving for alpha.water, Initial residual = 0, Final residual = 0, No Iterations 0
Phase-1 volume fraction = 0.211801  Min(alpha.water) = 0  Max(alpha.water) = 1
MULES: Correcting alpha.water
MULES: Correcting alpha.water
Phase-1 volume fraction = 0.211801  Min(alpha.water) = 0  Max(alpha.water) = 1
DICPCG:  Solving for p_rgh, Initial residual = 1, Final residual = 0.0487777, No Iterations 1
time step continuity errors : sum local = 0.00316601, global = -1.29805e-07, cumulative = -1.29805e-07
DICPCG:  Solving for p_rgh, Initial residual = 0.0207925, Final residual = 0.000948984, No Iterations 10
time step continuity errors : sum local = 0.000144498, global = -2.46538e-05, cumulative = -2.47836e-05
DICPCG:  Solving for p_rgh, Initial residual = 0.000626074, Final residual = 7.16293e-08, No Iterations 43
time step continuity errors : sum local = 1.65289e-08, global = 1.45058e-09, cumulative = -2.47821e-05
ExecutionTime = 5 s  ClockTime = 6 s

Courant Number mean: 0.000378984 max: 0.0216739
Interface Courant Number mean: 0 max: 0
deltaT = 0.00145287
Time = 0.00265769

PIMPLE: iteration 1
smoothSolver:  Solving for alpha.water, Initial residual = 9.36443e-05, Final residual = 2.24289e-15, No Iterations 2
Phase-1 volume fraction = 0.211801  Min(alpha.water) = 0  Max(alpha.water) = 1
MULES: Correcting alpha.water
MULES: Correcting alpha.water
Phase-1 volume fraction = 0.211801  Min(alpha.water) = -4.6313e-18  Max(alpha.water) = 1
DICPCG:  Solving for p_rgh, Initial residual = 0.000796676, Final residual = 3.47108e-05, No Iterations 18
time step continuity errors : sum local = 1.14121e-05, global = 1.87648e-06, cumulative = -2.29057e-05
DICPCG:  Solving for p_rgh, Initial residual = 6.78993e-05, Final residual = 3.10829e-06, No Iterations 21
time step continuity errors : sum local = 1.02161e-06, global = -2.79906e-08, cumulative = -2.29337e-05
DICPCG:  Solving for p_rgh, Initial residual = 3.837e-06, Final residual = 8.63057e-08, No Iterations 27
time step continuity errors : sum local = 2.83588e-08, global = 3.15658e-09, cumulative = -2.29305e-05
ExecutionTime = 6.23 s  ClockTime = 8 s

Courant Number mean: 0.000412975 max: 0.01317
Interface Courant Number mean: 2.55149e-05 max: 0.0119127
deltaT = 0.00173826
Time = 0.00439595

PIMPLE: iteration 1
smoothSolver:  Solving for alpha.water, Initial residual = 6.36261e-05, Final residual = 2.00361e-09, No Iterations 1
Phase-1 volume fraction = 0.211801  Min(alpha.water) = -3.81098e-85  Max(alpha.water) = 1
MULES: Correcting alpha.water
MULES: Correcting alpha.water
Phase-1 volume fraction = 0.211801  Min(alpha.water) = -3.33637e-19  Max(alpha.water) = 1
DICPCG:  Solving for p_rgh, Initial residual = 0.000506913, Final residual = 2.53198e-05, No Iterations 8
time step continuity errors : sum local = 1.17049e-05, global = -3.82288e-06, cumulative = -2.67534e-05
DICPCG:  Solving for p_rgh, Initial residual = 2.71772e-05, Final residual = 1.21061e-06, No Iterations 24
time step continuity errors : sum local = 5.59742e-07, global = 1.74103e-08, cumulative = -2.6736e-05
DICPCG:  Solving for p_rgh, Initial residual = 1.42089e-06, Final residual = 9.5731e-08, No Iterations 11
time step continuity errors : sum local = 4.42732e-08, global = -8.60199e-09, cumulative = -2.67446e-05
ExecutionTime = 6.58 s  ClockTime = 8 s

Courant Number mean: 0.000645985 max: 0.011196
Interface Courant Number mean: 2.0436e-05 max: 0.0100744
deltaT = 0.00207835
Time = 0.00647429

PIMPLE: iteration 1
smoothSolver:  Solving for alpha.water, Initial residual = 7.23529e-05, Final residual = 5.88e-10, No Iterations 1
Phase-1 volume fraction = 0.211801  Min(alpha.water) = -3.60351e-28  Max(alpha.water) = 1
MULES: Correcting alpha.water
MULES: Correcting alpha.water
Phase-1 volume fraction = 0.211801  Min(alpha.water) = -2.99357e-19  Max(alpha.water) = 1
DICPCG:  Solving for p_rgh, Initial residual = 0.000464763, Final residual = 1.73944e-05, No Iterations 3
time step continuity errors : sum local = 1.13111e-05, global = -1.35485e-07, cumulative = -2.68801e-05
DICPCG:  Solving for p_rgh, Initial residual = 1.99696e-05, Final residual = 9.83922e-07, No Iterations 25
time step continuity errors : sum local = 6.39783e-07, global = -4.4783e-08, cumulative = -2.69248e-05
DICPCG:  Solving for p_rgh, Initial residual = 1.03574e-06, Final residual = 9.68696e-08, No Iterations 13
time step continuity errors : sum local = 6.29998e-08, global = -1.12988e-08, cumulative = -2.69361e-05
ExecutionTime = 7.1 s  ClockTime = 9 s

Courant Number mean: 0.00109048 max: 0.0139583
Interface Courant Number mean: 2.79332e-05 max: 0.0133491
deltaT = 0.0024612
Time = 0.0089355

PIMPLE: iteration 1
smoothSolver:  Solving for alpha.water, Initial residual = 0.000108548, Final residual = 1.43653e-09, No Iterations 1
Phase-1 volume fraction = 0.211801  Min(alpha.water) = -6.16455e-26  Max(alpha.water) = 1
MULES: Correcting alpha.water
MULES: Correcting alpha.water
Phase-1 volume fraction = 0.211801  Min(alpha.water) = -3.77684e-17  Max(alpha.water) = 1
DICPCG:  Solving for p_rgh, Initial residual = 0.000638119, Final residual = 2.05088e-05, No Iterations 2
time step continuity errors : sum local = 1.8468e-05, global = -3.27479e-08, cumulative = -2.69689e-05
DICPCG:  Solving for p_rgh, Initial residual = 2.24015e-05, Final residual = 1.03018e-06, No Iterations 11
time step continuity errors : sum local = 9.27512e-07, global = -1.45914e-07, cumulative = -2.71148e-05
DICPCG:  Solving for p_rgh, Initial residual = 1.0693e-06, Final residual = 8.35322e-08, No Iterations 18
time step continuity errors : sum local = 7.52176e-08, global = -2.04847e-08, cumulative = -2.71353e-05
ExecutionTime = 7.84 s  ClockTime = 9 s

Courant Number mean: 0.00174196 max: 0.0184545
Interface Courant Number mean: 5.20223e-05 max: 0.0179797
deltaT = 0.00293756
Time = 0.0118731

PIMPLE: iteration 1
smoothSolver:  Solving for alpha.water, Initial residual = 0.000162881, Final residual = 5.00087e-09, No Iterations 1
Phase-1 volume fraction = 0.211801  Min(alpha.water) = -3.34945e-24  Max(alpha.water) = 1
MULES: Correcting alpha.water
MULES: Correcting alpha.water
Phase-1 volume fraction = 0.211801  Min(alpha.water) = -3.19943e-20  Max(alpha.water) = 1
DICPCG:  Solving for p_rgh, Initial residual = 0.000901325, Final residual = 2.39579e-05, No Iterations 2
time step continuity errors : sum local = 3.04487e-05, global = -4.86489e-08, cumulative = -2.71839e-05
DICPCG:  Solving for p_rgh, Initial residual = 2.56796e-05, Final residual = 1.12325e-06, No Iterations 12
time step continuity errors : sum local = 1.42708e-06, global = -2.66125e-07, cumulative = -2.74501e-05
DICPCG:  Solving for p_rgh, Initial residual = 1.18757e-06, Final residual = 8.38821e-08, No Iterations 21
time step continuity errors : sum local = 1.06591e-07, global = -2.5049e-09, cumulative = -2.74526e-05
ExecutionTime = 8.86 s  ClockTime = 11 s

Courant Number mean: 0.00272414 max: 0.0272358
Interface Courant Number mean: 9.94056e-05 max: 0.0272358
deltaT = 0.00352508
Time = 0.0153981

PIMPLE: iteration 1
smoothSolver:  Solving for alpha.water, Initial residual = 0.000241411, Final residual = 3.88012e-13, No Iterations 2
Phase-1 volume fraction = 0.211801  Min(alpha.water) = -4.21971e-55  Max(alpha.water) = 1
MULES: Correcting alpha.water
MULES: Correcting alpha.water
Phase-1 volume fraction = 0.211801  Min(alpha.water) = -6.71824e-29  Max(alpha.water) = 1
DICPCG:  Solving for p_rgh, Initial residual = 0.00128796, Final residual = 3.02152e-05, No Iterations 2
time step continuity errors : sum local = 5.48979e-05, global = -1.03202e-08, cumulative = -2.74629e-05
DICPCG:  Solving for p_rgh, Initial residual = 3.1601e-05, Final residual = 1.37209e-06, No Iterations 13
time step continuity errors : sum local = 2.49147e-06, global = -5.47051e-07, cumulative = -2.80099e-05
DICPCG:  Solving for p_rgh, Initial residual = 1.50507e-06, Final residual = 6.98745e-08, No Iterations 25
time step continuity errors : sum local = 1.26915e-07, global = -2.07478e-09, cumulative = -2.8012e-05
ExecutionTime = 8.93 s  ClockTime = 11 s

Courant Number mean: 0.00419974 max: 0.0420584
Interface Courant Number mean: 0.000236322 max: 0.0420584
deltaT = 0.00423009
Time = 0.0196282

PIMPLE: iteration 1
smoothSolver:  Solving for alpha.water, Initial residual = 0.000353383, Final residual = 3.33578e-12, No Iterations 2
Phase-1 volume fraction = 0.211801  Min(alpha.water) = -1.83501e-133  Max(alpha.water) = 1
MULES: Correcting alpha.water
MULES: Correcting alpha.water
Phase-1 volume fraction = 0.211801  Min(alpha.water) = -6.62617e-27  Max(alpha.water) = 1
DICPCG:  Solving for p_rgh, Initial residual = 0.00182524, Final residual = 3.82546e-05, No Iterations 2
time step continuity errors : sum local = 9.94346e-05, global = -3.70758e-08, cumulative = -2.80491e-05
DICPCG:  Solving for p_rgh, Initial residual = 3.95763e-05, Final residual = 1.95211e-06, No Iterations 13
time step continuity errors : sum local = 5.06928e-06, global = -1.37898e-06, cumulative = -2.94281e-05
DICPCG:  Solving for p_rgh, Initial residual = 2.23641e-06, Final residual = 6.31315e-08, No Iterations 26
time step continuity errors : sum local = 1.64006e-07, global = 2.44424e-09, cumulative = -2.94256e-05
ExecutionTime = 9.01 s  ClockTime = 11 s

Courant Number mean: 0.00639581 max: 0.0654804
Interface Courant Number mean: 0.00044756 max: 0.0654804
deltaT = 0.00502324
Time = 0.0246515

PIMPLE: iteration 1
smoothSolver:  Solving for alpha.water, Initial residual = 0.000507428, Final residual = 2.37249e-11, No Iterations 2
Phase-1 volume fraction = 0.211801  Min(alpha.water) = -4.83825e-103  Max(alpha.water) = 1
MULES: Correcting alpha.water
MULES: Correcting alpha.water
Phase-1 volume fraction = 0.211801  Min(alpha.water) = -6.46765e-13  Max(alpha.water) = 1
DICPCG:  Solving for p_rgh, Initial residual = 0.00255571, Final residual = 4.71915e-05, No Iterations 2
time step continuity errors : sum local = 0.000171802, global = 3.73394e-09, cumulative = -2.94219e-05
DICPCG:  Solving for p_rgh, Initial residual = 4.85871e-05, Final residual = 2.27802e-06, No Iterations 14
time step continuity errors : sum local = 8.28139e-06, global = -2.59574e-06, cumulative = -3.20176e-05
DICPCG:  Solving for p_rgh, Initial residual = 3.01052e-06, Final residual = 6.66162e-08, No Iterations 26
time step continuity errors : sum local = 2.42309e-07, global = 1.74152e-08, cumulative = -3.20002e-05
ExecutionTime = 9.08 s  ClockTime = 11 s

Courant Number mean: 0.00953325 max: 0.0999853
Interface Courant Number mean: 0.000709178 max: 0.0999853
deltaT = 0.00579604
Time = 0.0304475

PIMPLE: iteration 1
smoothSolver:  Solving for alpha.water, Initial residual = 0.000701818, Final residual = 1.28446e-10, No Iterations 2
Phase-1 volume fraction = 0.211801  Min(alpha.water) = -1.03902e-42  Max(alpha.water) = 1
MULES: Correcting alpha.water
MULES: Correcting alpha.water
Phase-1 volume fraction = 0.211801  Min(alpha.water) = -1.04796e-12  Max(alpha.water) = 1
DICPCG:  Solving for p_rgh, Initial residual = 0.00342477, Final residual = 0.000164378, No Iterations 1
time step continuity errors : sum local = 0.000790801, global = 1.88733e-07, cumulative = -3.18115e-05
DICPCG:  Solving for p_rgh, Initial residual = 0.00016643, Final residual = 7.72069e-06, No Iterations 8
time step continuity errors : sum local = 3.70709e-05, global = -7.25993e-06, cumulative = -3.90714e-05
DICPCG:  Solving for p_rgh, Initial residual = 9.97658e-06, Final residual = 8.81725e-08, No Iterations 31
time step continuity errors : sum local = 4.23563e-07, global = -3.51637e-08, cumulative = -3.91066e-05
ExecutionTime = 9.44 s  ClockTime = 12 s

Courant Number mean: 0.0136004 max: 0.143126
Interface Courant Number mean: 0.0010131 max: 0.143126
deltaT = 0.00695525
Time = 0.0374028

PIMPLE: iteration 1
smoothSolver:  Solving for alpha.water, Initial residual = 0.000997927, Final residual = 7.21103e-10, No Iterations 2
Phase-1 volume fraction = 0.211801  Min(alpha.water) = -3.37606e-43  Max(alpha.water) = 1
MULES: Correcting alpha.water
MULES: Correcting alpha.water
Phase-1 volume fraction = 0.211801  Min(alpha.water) = -1.86964e-11  Max(alpha.water) = 1
DICPCG:  Solving for p_rgh, Initial residual = 0.00468156, Final residual = 0.000205571, No Iterations 1
time step continuity errors : sum local = 0.00140853, global = 2.72064e-07, cumulative = -3.88345e-05
DICPCG:  Solving for p_rgh, Initial residual = 0.00021044, Final residual = 1.041e-05, No Iterations 7
time step continuity errors : sum local = 7.11245e-05, global = -1.18877e-05, cumulative = -5.07222e-05
DICPCG:  Solving for p_rgh, Initial residual = 1.56215e-05, Final residual = 7.71907e-08, No Iterations 33
time step continuity errors : sum local = 5.27625e-07, global = -1.11219e-08, cumulative = -5.07334e-05
ExecutionTime = 9.76 s  ClockTime = 12 s

Courant Number mean: 0.0199616 max: 0.193971
Interface Courant Number mean: 0.00146511 max: 0.193971
deltaT = 0.00782466
Time = 0.0452274

PIMPLE: iteration 1
smoothSolver:  Solving for alpha.water, Initial residual = 0.00132605, Final residual = 2.59675e-09, No Iterations 2
Phase-1 volume fraction = 0.211801  Min(alpha.water) = -3.2714e-43  Max(alpha.water) = 1
MULES: Correcting alpha.water
MULES: Correcting alpha.water
Phase-1 volume fraction = 0.211801  Min(alpha.water) = -1.17069e-10  Max(alpha.water) = 1
DICPCG:  Solving for p_rgh, Initial residual = 0.00602817, Final residual = 0.000244406, No Iterations 1
time step continuity errors : sum local = 0.00209125, global = 7.35911e-07, cumulative = -4.99974e-05
DICPCG:  Solving for p_rgh, Initial residual = 0.000251227, Final residual = 1.19674e-05, No Iterations 7
time step continuity errors : sum local = 0.000101991, global = -1.39941e-05, cumulative = -6.39915e-05
DICPCG:  Solving for p_rgh, Initial residual = 2.00318e-05, Final residual = 6.7478e-08, No Iterations 34
time step continuity errors : sum local = 5.75382e-07, global = -1.23308e-08, cumulative = -6.40039e-05
ExecutionTime = 9.93 s  ClockTime = 12 s

Courant Number mean: 0.0268824 max: 0.236364
Interface Courant Number mean: 0.00193976 max: 0.236364
deltaT = 0.00912876
Time = 0.0543562

PIMPLE: iteration 1
smoothSolver:  Solving for alpha.water, Initial residual = 0.00180018, Final residual = 9.31405e-09, No Iterations 2
Phase-1 volume fraction = 0.211801  Min(alpha.water) = -5.55171e-23  Max(alpha.water) = 1
MULES: Correcting alpha.water
MULES: Correcting alpha.water
Phase-1 volume fraction = 0.211801  Min(alpha.water) = -4.15784e-10  Max(alpha.water) = 1
DICPCG:  Solving for p_rgh, Initial residual = 0.00791222, Final residual = 0.000287017, No Iterations 1
time step continuity errors : sum local = 0.00327865, global = 1.27597e-06, cumulative = -6.27279e-05
DICPCG:  Solving for p_rgh, Initial residual = 0.000296042, Final residual = 1.45133e-05, No Iterations 7
time step continuity errors : sum local = 0.000164817, global = -2.28862e-05, cumulative = -8.56141e-05
DICPCG:  Solving for p_rgh, Initial residual = 2.73887e-05, Final residual = 9.40497e-08, No Iterations 34
time step continuity errors : sum local = 1.06873e-06, global = -4.36831e-08, cumulative = -8.56578e-05
ExecutionTime = 10 s  ClockTime = 12 s

Courant Number mean: 0.0371725 max: 0.294566
Interface Courant Number mean: 0.00261675 max: 0.294566
deltaT = 0.011411
Time = 0.0657671

PIMPLE: iteration 1
smoothSolver:  Solving for alpha.water, Initial residual = 0.00260735, Final residual = 2.13706e-10, No Iterations 3
Phase-1 volume fraction = 0.211801  Min(alpha.water) = -2.35141e-42  Max(alpha.water) = 1
MULES: Correcting alpha.water
MULES: Correcting alpha.water
Phase-1 volume fraction = 0.211801  Min(alpha.water) = -1.2899e-12  Max(alpha.water) = 1
DICPCG:  Solving for p_rgh, Initial residual = 0.01095, Final residual = 0.000323393, No Iterations 1
time step continuity errors : sum local = 0.00559552, global = 2.95706e-06, cumulative = -8.27007e-05
DICPCG:  Solving for p_rgh, Initial residual = 0.00033462, Final residual = 1.48138e-05, No Iterations 8
time step continuity errors : sum local = 0.000253989, global = -4.08036e-05, cumulative = -0.000123504
DICPCG:  Solving for p_rgh, Initial residual = 3.66742e-05, Final residual = 9.07144e-08, No Iterations 34
time step continuity errors : sum local = 1.55722e-06, global = -2.7835e-07, cumulative = -0.000123783
ExecutionTime = 10.05 s  ClockTime = 12 s

Courant Number mean: 0.0552743 max: 0.387934
Interface Courant Number mean: 0.00411679 max: 0.387934
deltaT = 0.011411
Time = 0.0771781

PIMPLE: iteration 1
smoothSolver:  Solving for alpha.water, Initial residual = 0.00304607, Final residual = 7.13269e-10, No Iterations 3
Phase-1 volume fraction = 0.211801  Min(alpha.water) = -1.5253e-41  Max(alpha.water) = 1
MULES: Correcting alpha.water
MULES: Correcting alpha.water
Phase-1 volume fraction = 0.211801  Min(alpha.water) = -8.72133e-15  Max(alpha.water) = 1
DICPCG:  Solving for p_rgh, Initial residual = 0.0125945, Final residual = 0.000326881, No Iterations 1
time step continuity errors : sum local = 0.00550037, global = 2.80155e-06, cumulative = -0.000120981
DICPCG:  Solving for p_rgh, Initial residual = 0.000340056, Final residual = 1.55098e-05, No Iterations 8
time step continuity errors : sum local = 0.000258125, global = -3.40055e-05, cumulative = -0.000154987
DICPCG:  Solving for p_rgh, Initial residual = 3.82329e-05, Final residual = 8.62059e-08, No Iterations 34
time step continuity errors : sum local = 1.43736e-06, global = -2.60427e-07, cumulative = -0.000155247
ExecutionTime = 10.11 s  ClockTime = 12 s

Courant Number mean: 0.0636942 max: 0.414593
Interface Courant Number mean: 0.00520851 max: 0.414593
deltaT = 0.011411
Time = 0.088589

PIMPLE: iteration 1
smoothSolver:  Solving for alpha.water, Initial residual = 0.00343862, Final residual = 2.14456e-09, No Iterations 3
Phase-1 volume fraction = 0.211801  Min(alpha.water) = -1.38297e-41  Max(alpha.water) = 1
MULES: Correcting alpha.water
MULES: Correcting alpha.water
Phase-1 volume fraction = 0.211801  Min(alpha.water) = -3.60982e-14  Max(alpha.water) = 1
DICPCG:  Solving for p_rgh, Initial residual = 0.0138992, Final residual = 0.000316334, No Iterations 1
time step continuity errors : sum local = 0.00516741, global = 2.63171e-06, cumulative = -0.000152615
DICPCG:  Solving for p_rgh, Initial residual = 0.000334482, Final residual = 1.54099e-05, No Iterations 8
time step continuity errors : sum local = 0.000248537, global = -3.1701e-05, cumulative = -0.000184316
DICPCG:  Solving for p_rgh, Initial residual = 3.86945e-05, Final residual = 8.19369e-08, No Iterations 34
time step continuity errors : sum local = 1.32419e-06, global = -2.41032e-07, cumulative = -0.000184557
ExecutionTime = 10.18 s  ClockTime = 12 s

Courant Number mean: 0.0714466 max: 0.426621
Interface Courant Number mean: 0.00672925 max: 0.426621
deltaT = 0.011411
Time = 0.1

PIMPLE: iteration 1
smoothSolver:  Solving for alpha.water, Initial residual = 0.0037788, Final residual = 4.54649e-09, No Iterations 3
Phase-1 volume fraction = 0.211801  Min(alpha.water) = -5.73101e-21  Max(alpha.water) = 1
MULES: Correcting alpha.water
MULES: Correcting alpha.water
Phase-1 volume fraction = 0.211801  Min(alpha.water) = -8.33117e-14  Max(alpha.water) = 1
DICPCG:  Solving for p_rgh, Initial residual = 0.0147812, Final residual = 0.000301355, No Iterations 1
time step continuity errors : sum local = 0.00476834, global = 2.45367e-06, cumulative = -0.000182104
DICPCG:  Solving for p_rgh, Initial residual = 0.000323554, Final residual = 1.53995e-05, No Iterations 8
time step continuity errors : sum local = 0.000240268, global = -2.33573e-05, cumulative = -0.000205461
DICPCG:  Solving for p_rgh, Initial residual = 3.81509e-05, Final residual = 7.9077e-08, No Iterations 34
time step continuity errors : sum local = 1.23678e-06, global = -2.43115e-07, cumulative = -0.000205704
ExecutionTime = 10.99 s  ClockTime = 13 s

Courant Number mean: 0.0784184 max: 0.419287
Interface Courant Number mean: 0.00777805 max: 0.419287
deltaT = 0.0125
Time = 0.1125

PIMPLE: iteration 1
smoothSolver:  Solving for alpha.water, Initial residual = 0.00448031, Final residual = 1.69168e-10, No Iterations 4
Phase-1 volume fraction = 0.211801  Min(alpha.water) = -5.03467e-21  Max(alpha.water) = 1
MULES: Correcting alpha.water
MULES: Correcting alpha.water
Phase-1 volume fraction = 0.211801  Min(alpha.water) = -1.92875e-13  Max(alpha.water) = 1
DICPCG:  Solving for p_rgh, Initial residual = 0.0163739, Final residual = 0.000290808, No Iterations 1
time step continuity errors : sum local = 0.00529958, global = 2.81008e-06, cumulative = -0.000202894
DICPCG:  Solving for p_rgh, Initial residual = 0.000321426, Final residual = 1.53373e-05, No Iterations 8
time step continuity errors : sum local = 0.000274995, global = -2.79772e-05, cumulative = -0.000230871
DICPCG:  Solving for p_rgh, Initial residual = 4.27125e-05, Final residual = 8.75025e-08, No Iterations 34
time step continuity errors : sum local = 1.57377e-06, global = -2.4816e-07, cumulative = -0.000231119
ExecutionTime = 11.83 s  ClockTime = 14 s

Courant Number mean: 0.0937976 max: 0.480779
Interface Courant Number mean: 0.0103474 max: 0.480779
deltaT = 0.0125
Time = 0.125

PIMPLE: iteration 1
smoothSolver:  Solving for alpha.water, Initial residual = 0.00479645, Final residual = 2.00153e-10, No Iterations 4
Phase-1 volume fraction = 0.211801  Min(alpha.water) = -4.37779e-21  Max(alpha.water) = 1
MULES: Correcting alpha.water
MULES: Correcting alpha.water
Phase-1 volume fraction = 0.211801  Min(alpha.water) = -2.23881e-13  Max(alpha.water) = 1
DICPCG:  Solving for p_rgh, Initial residual = 0.0161959, Final residual = 0.000275714, No Iterations 1
time step continuity errors : sum local = 0.00484395, global = 2.74658e-06, cumulative = -0.000228373
DICPCG:  Solving for p_rgh, Initial residual = 0.000304609, Final residual = 1.47388e-05, No Iterations 8
time step continuity errors : sum local = 0.000254662, global = -1.79932e-05, cumulative = -0.000246366
DICPCG:  Solving for p_rgh, Initial residual = 4.27583e-05, Final residual = 8.27503e-08, No Iterations 33
time step continuity errors : sum local = 1.43487e-06, global = -9.75955e-08, cumulative = -0.000246464
ExecutionTime = 12.26 s  ClockTime = 15 s

Courant Number mean: 0.101281 max: 0.525868
Interface Courant Number mean: 0.0108649 max: 0.514356
deltaT = 0.0125
Time = 0.1375

PIMPLE: iteration 1
smoothSolver:  Solving for alpha.water, Initial residual = 0.00510688, Final residual = 3.22634e-10, No Iterations 4
Phase-1 volume fraction = 0.211801  Min(alpha.water) = -3.76963e-21  Max(alpha.water) = 1
MULES: Correcting alpha.water
MULES: Correcting alpha.water
Phase-1 volume fraction = 0.211801  Min(alpha.water) = -6.6971e-11  Max(alpha.water) = 1
DICPCG:  Solving for p_rgh, Initial residual = 0.0155727, Final residual = 0.00029027, No Iterations 1
time step continuity errors : sum local = 0.00493172, global = 2.57387e-06, cumulative = -0.00024389
DICPCG:  Solving for p_rgh, Initial residual = 0.000321942, Final residual = 1.54062e-05, No Iterations 8
time step continuity errors : sum local = 0.000257503, global = -9.50273e-06, cumulative = -0.000253392
DICPCG:  Solving for p_rgh, Initial residual = 4.65898e-05, Final residual = 9.00746e-08, No Iterations 30
time step continuity errors : sum local = 1.51083e-06, global = 7.22951e-08, cumulative = -0.00025332
ExecutionTime = 12.79 s  ClockTime = 15 s

Courant Number mean: 0.108316 max: 0.544115
Interface Courant Number mean: 0.0130538 max: 0.543999
deltaT = 0.0125
Time = 0.15

PIMPLE: iteration 1
smoothSolver:  Solving for alpha.water, Initial residual = 0.0054232, Final residual = 5.15946e-10, No Iterations 4
Phase-1 volume fraction = 0.211801  Min(alpha.water) = -3.22462e-21  Max(alpha.water) = 1
MULES: Correcting alpha.water
MULES: Correcting alpha.water
Phase-1 volume fraction = 0.211801  Min(alpha.water) = -3.28636e-09  Max(alpha.water) = 1
DICPCG:  Solving for p_rgh, Initial residual = 0.0157549, Final residual = 0.000318842, No Iterations 1
time step continuity errors : sum local = 0.00525869, global = 2.3271e-06, cumulative = -0.000250993
DICPCG:  Solving for p_rgh, Initial residual = 0.00035207, Final residual = 1.5467e-05, No Iterations 8
time step continuity errors : sum local = 0.000250807, global = 8.83726e-06, cumulative = -0.000242156
DICPCG:  Solving for p_rgh, Initial residual = 5.09816e-05, Final residual = 7.71006e-08, No Iterations 27
time step continuity errors : sum local = 1.25396e-06, global = -6.08137e-07, cumulative = -0.000242764
ExecutionTime = 13.04 s  ClockTime = 16 s

Courant Number mean: 0.115151 max: 0.582314
Interface Courant Number mean: 0.0127911 max: 0.567501
deltaT = 0.01
Time = 0.16

PIMPLE: iteration 1
smoothSolver:  Solving for alpha.water, Initial residual = 0.00455129, Final residual = 2.47826e-10, No Iterations 4
Phase-1 volume fraction = 0.211801  Min(alpha.water) = -1.24845e-12  Max(alpha.water) = 1
MULES: Correcting alpha.water
MULES: Correcting alpha.water
Phase-1 volume fraction = 0.211801  Min(alpha.water) = -1.78227e-10  Max(alpha.water) = 1
DICPCG:  Solving for p_rgh, Initial residual = 0.0141626, Final residual = 0.000307848, No Iterations 1
time step continuity errors : sum local = 0.00324028, global = -9.91482e-07, cumulative = -0.000243755
DICPCG:  Solving for p_rgh, Initial residual = 0.000330356, Final residual = 1.28663e-05, No Iterations 8
time step continuity errors : sum local = 0.000133377, global = 2.4886e-05, cumulative = -0.000218869
DICPCG:  Solving for p_rgh, Initial residual = 3.84398e-05, Final residual = 8.59209e-08, No Iterations 32
time step continuity errors : sum local = 8.92551e-07, global = 8.08601e-08, cumulative = -0.000218789
ExecutionTime = 13.33 s  ClockTime = 16 s

Courant Number mean: 0.0955508 max: 0.473024
Interface Courant Number mean: 0.0116831 max: 0.473015
deltaT = 0.01
Time = 0.17

PIMPLE: iteration 1
smoothSolver:  Solving for alpha.water, Initial residual = 0.00472143, Final residual = 4.55757e-10, No Iterations 4
Phase-1 volume fraction = 0.211801  Min(alpha.water) = -3.44004e-13  Max(alpha.water) = 1
MULES: Correcting alpha.water
MULES: Correcting alpha.water
Phase-1 volume fraction = 0.211801  Min(alpha.water) = -8.45653e-11  Max(alpha.water) = 1
DICPCG:  Solving for p_rgh, Initial residual = 0.0133965, Final residual = 0.000305069, No Iterations 1
time step continuity errors : sum local = 0.00312752, global = -1.28608e-07, cumulative = -0.000218917
DICPCG:  Solving for p_rgh, Initial residual = 0.000333933, Final residual = 1.43387e-05, No Iterations 7
time step continuity errors : sum local = 0.000144881, global = 4.0933e-05, cumulative = -0.000177984
DICPCG:  Solving for p_rgh, Initial residual = 3.96165e-05, Final residual = 8.42794e-08, No Iterations 25
time step continuity errors : sum local = 8.52714e-07, global = -1.5419e-07, cumulative = -0.000178138
ExecutionTime = 13.86 s  ClockTime = 17 s

Courant Number mean: 0.098801 max: 0.484303
Interface Courant Number mean: 0.0116114 max: 0.484191
deltaT = 0.01
Time = 0.18

PIMPLE: iteration 1
smoothSolver:  Solving for alpha.water, Initial residual = 0.00491593, Final residual = 8.12939e-10, No Iterations 4
Phase-1 volume fraction = 0.211801  Min(alpha.water) = -2.81185e-13  Max(alpha.water) = 1
MULES: Correcting alpha.water
MULES: Correcting alpha.water
Phase-1 volume fraction = 0.211801  Min(alpha.water) = -1.41632e-10  Max(alpha.water) = 1
DICPCG:  Solving for p_rgh, Initial residual = 0.0136037, Final residual = 0.000348048, No Iterations 1
time step continuity errors : sum local = 0.00349724, global = -7.52397e-07, cumulative = -0.000178891
DICPCG:  Solving for p_rgh, Initial residual = 0.000378562, Final residual = 1.80999e-05, No Iterations 6
time step continuity errors : sum local = 0.000179182, global = 8.15519e-05, cumulative = -9.73388e-05
DICPCG:  Solving for p_rgh, Initial residual = 4.59999e-05, Final residual = 8.4864e-08, No Iterations 32
time step continuity errors : sum local = 8.40669e-07, global = 4.94965e-08, cumulative = -9.72893e-05
ExecutionTime = 14.27 s  ClockTime = 17 s

Courant Number mean: 0.101759 max: 0.493413
Interface Courant Number mean: 0.0112538 max: 0.477684
deltaT = 0.01
Time = 0.19

PIMPLE: iteration 1
smoothSolver:  Solving for alpha.water, Initial residual = 0.00506221, Final residual = 9.22955e-10, No Iterations 4
Phase-1 volume fraction = 0.211801  Min(alpha.water) = -2.30105e-13  Max(alpha.water) = 1
MULES: Correcting alpha.water
MULES: Correcting alpha.water
Phase-1 volume fraction = 0.211801  Min(alpha.water) = -1.11584e-08  Max(alpha.water) = 1
DICPCG:  Solving for p_rgh, Initial residual = 0.0124687, Final residual = 0.000335678, No Iterations 1
time step continuity errors : sum local = 0.00329588, global = -8.00967e-07, cumulative = -9.80903e-05
DICPCG:  Solving for p_rgh, Initial residual = 0.000365671, Final residual = 1.73835e-05, No Iterations 6
time step continuity errors : sum local = 0.000168347, global = 7.86132e-05, cumulative = -1.94771e-05
DICPCG:  Solving for p_rgh, Initial residual = 4.69281e-05, Final residual = 9.15709e-08, No Iterations 27
time step continuity errors : sum local = 8.87044e-07, global = 2.68174e-07, cumulative = -1.92089e-05
ExecutionTime = 16.29 s  ClockTime = 19 s

Courant Number mean: 0.104543 max: 0.501667
Interface Courant Number mean: 0.0110641 max: 0.501648
deltaT = 0.01
Time = 0.2

PIMPLE: iteration 1
smoothSolver:  Solving for alpha.water, Initial residual = 0.00529236, Final residual = 7.04372e-10, No Iterations 4
Phase-1 volume fraction = 0.211801  Min(alpha.water) = -1.78945e-13  Max(alpha.water) = 1
MULES: Correcting alpha.water
MULES: Correcting alpha.water
Phase-1 volume fraction = 0.211801  Min(alpha.water) = -1.23883e-09  Max(alpha.water) = 1
DICPCG:  Solving for p_rgh, Initial residual = 0.0134514, Final residual = 0.000366329, No Iterations 1
time step continuity errors : sum local = 0.00353263, global = -3.78807e-07, cumulative = -1.95877e-05
DICPCG:  Solving for p_rgh, Initial residual = 0.000398488, Final residual = 1.74173e-05, No Iterations 6
time step continuity errors : sum local = 0.000165453, global = 8.49026e-05, cumulative = 6.53149e-05
DICPCG:  Solving for p_rgh, Initial residual = 5.07995e-05, Final residual = 9.2834e-08, No Iterations 35
time step continuity errors : sum local = 8.81483e-07, global = 1.06382e-08, cumulative = 6.53255e-05
ExecutionTime = 16.87 s  ClockTime = 20 s

Courant Number mean: 0.107043 max: 0.512475
Interface Courant Number mean: 0.0115187 max: 0.502248
deltaT = 0.01
Time = 0.21

PIMPLE: iteration 1
smoothSolver:  Solving for alpha.water, Initial residual = 0.00537275, Final residual = 4.95173e-10, No Iterations 4
Phase-1 volume fraction = 0.211801  Min(alpha.water) = -1.37789e-13  Max(alpha.water) = 1
MULES: Correcting alpha.water
MULES: Correcting alpha.water
Phase-1 volume fraction = 0.211801  Min(alpha.water) = -1.32045e-11  Max(alpha.water) = 1
DICPCG:  Solving for p_rgh, Initial residual = 0.012831, Final residual = 0.000360828, No Iterations 1
time step continuity errors : sum local = 0.00339536, global = -1.59897e-06, cumulative = 6.37265e-05
DICPCG:  Solving for p_rgh, Initial residual = 0.000400553, Final residual = 1.88923e-05, No Iterations 6
time step continuity errors : sum local = 0.000175331, global = 8.60389e-05, cumulative = 0.000149765
DICPCG:  Solving for p_rgh, Initial residual = 5.34273e-05, Final residual = 9.13363e-08, No Iterations 35
time step continuity errors : sum local = 8.4679e-07, global = 8.17379e-09, cumulative = 0.000149774
ExecutionTime = 17.98 s  ClockTime = 22 s

Courant Number mean: 0.10909 max: 0.517219
Interface Courant Number mean: 0.0118233 max: 0.517219
deltaT = 0.01
Time = 0.22

PIMPLE: iteration 1
smoothSolver:  Solving for alpha.water, Initial residual = 0.00545039, Final residual = 2.62334e-10, No Iterations 4
Phase-1 volume fraction = 0.211801  Min(alpha.water) = -9.85109e-14  Max(alpha.water) = 1
MULES: Correcting alpha.water
MULES: Correcting alpha.water
Phase-1 volume fraction = 0.211801  Min(alpha.water) = -3.61685e-11  Max(alpha.water) = 1
DICPCG:  Solving for p_rgh, Initial residual = 0.0132724, Final residual = 0.000349962, No Iterations 1
time step continuity errors : sum local = 0.0032407, global = -1.50001e-06, cumulative = 0.000148274
DICPCG:  Solving for p_rgh, Initial residual = 0.000388478, Final residual = 1.88128e-05, No Iterations 7
time step continuity errors : sum local = 0.000171582, global = 6.10897e-05, cumulative = 0.000209363
DICPCG:  Solving for p_rgh, Initial residual = 4.93871e-05, Final residual = 9.57118e-08, No Iterations 28
time step continuity errors : sum local = 8.7132e-07, global = 2.7565e-07, cumulative = 0.000209639
ExecutionTime = 18.04 s  ClockTime = 22 s

Courant Number mean: 0.110862 max: 0.531185
Interface Courant Number mean: 0.0134729 max: 0.524383
deltaT = 0.01
Time = 0.23

PIMPLE: iteration 1
smoothSolver:  Solving for alpha.water, Initial residual = 0.00554205, Final residual = 1.77506e-10, No Iterations 4
Phase-1 volume fraction = 0.211801  Min(alpha.water) = -5.94118e-14  Max(alpha.water) = 1
MULES: Correcting alpha.water
MULES: Correcting alpha.water
Phase-1 volume fraction = 0.211801  Min(alpha.water) = -2.46206e-11  Max(alpha.water) = 1
DICPCG:  Solving for p_rgh, Initial residual = 0.012901, Final residual = 0.000386081, No Iterations 1
time step continuity errors : sum local = 0.00347487, global = -3.08979e-07, cumulative = 0.00020933
DICPCG:  Solving for p_rgh, Initial residual = 0.000426814, Final residual = 1.63797e-05, No Iterations 8
time step continuity errors : sum local = 0.000145328, global = 3.45751e-05, cumulative = 0.000243905
DICPCG:  Solving for p_rgh, Initial residual = 5.09322e-05, Final residual = 9.462e-08, No Iterations 32
time step continuity errors : sum local = 8.3715e-07, global = -5.93557e-09, cumulative = 0.000243899
ExecutionTime = 18.11 s  ClockTime = 22 s

Courant Number mean: 0.112254 max: 0.534296
Interface Courant Number mean: 0.013454 max: 0.534296
deltaT = 0.01
Time = 0.24

PIMPLE: iteration 1
smoothSolver:  Solving for alpha.water, Initial residual = 0.00558977, Final residual = 9.86438e-11, No Iterations 4
Phase-1 volume fraction = 0.211801  Min(alpha.water) = -2.35104e-14  Max(alpha.water) = 1
MULES: Correcting alpha.water
MULES: Correcting alpha.water
Phase-1 volume fraction = 0.211801  Min(alpha.water) = -6.3235e-10  Max(alpha.water) = 1
DICPCG:  Solving for p_rgh, Initial residual = 0.0127532, Final residual = 0.000367564, No Iterations 1
time step continuity errors : sum local = 0.0032495, global = -1.11161e-06, cumulative = 0.000242788
DICPCG:  Solving for p_rgh, Initial residual = 0.000408971, Final residual = 1.74208e-05, No Iterations 8
time step continuity errors : sum local = 0.000151862, global = 3.00013e-05, cumulative = 0.000272789
DICPCG:  Solving for p_rgh, Initial residual = 5.05162e-05, Final residual = 9.20571e-08, No Iterations 32
time step continuity errors : sum local = 7.99421e-07, global = -6.97304e-08, cumulative = 0.000272719
ExecutionTime = 18.16 s  ClockTime = 22 s

Courant Number mean: 0.113834 max: 0.547002
Interface Courant Number mean: 0.0130361 max: 0.54286
deltaT = 0.00857143
Time = 0.248571

PIMPLE: iteration 1
smoothSolver:  Solving for alpha.water, Initial residual = 0.00478772, Final residual = 4.70529e-09, No Iterations 3
Phase-1 volume fraction = 0.211801  Min(alpha.water) = -1.89706e-14  Max(alpha.water) = 1
MULES: Correcting alpha.water
MULES: Correcting alpha.water
Phase-1 volume fraction = 0.211801  Min(alpha.water) = -1.43656e-11  Max(alpha.water) = 1
DICPCG:  Solving for p_rgh, Initial residual = 0.0114155, Final residual = 0.000339634, No Iterations 1
time step continuity errors : sum local = 0.00218916, global = -5.64071e-07, cumulative = 0.000272155
DICPCG:  Solving for p_rgh, Initial residual = 0.000368351, Final residual = 1.64402e-05, No Iterations 8
time step continuity errors : sum local = 0.000104606, global = 2.19471e-05, cumulative = 0.000294102
DICPCG:  Solving for p_rgh, Initial residual = 4.08356e-05, Final residual = 6.87144e-08, No Iterations 32
time step continuity errors : sum local = 4.35591e-07, global = 4.12763e-09, cumulative = 0.000294106
ExecutionTime = 18.23 s  ClockTime = 22 s

Courant Number mean: 0.098417 max: 0.471844
Interface Courant Number mean: 0.0112888 max: 0.458035
deltaT = 0.00857143
Time = 0.257143

PIMPLE: iteration 1
smoothSolver:  Solving for alpha.water, Initial residual = 0.00484897, Final residual = 3.25338e-09, No Iterations 3
Phase-1 volume fraction = 0.211801  Min(alpha.water) = -1.67224e-14  Max(alpha.water) = 1
MULES: Correcting alpha.water
MULES: Correcting alpha.water
Phase-1 volume fraction = 0.211801  Min(alpha.water) = -8.58131e-09  Max(alpha.water) = 1
DICPCG:  Solving for p_rgh, Initial residual = 0.0112078, Final residual = 0.000371804, No Iterations 1
time step continuity errors : sum local = 0.00234037, global = -2.79688e-07, cumulative = 0.000293827
DICPCG:  Solving for p_rgh, Initial residual = 0.00040511, Final residual = 1.70598e-05, No Iterations 8
time step continuity errors : sum local = 0.000106088, global = 2.53086e-05, cumulative = 0.000319135
DICPCG:  Solving for p_rgh, Initial residual = 4.35202e-05, Final residual = 8.35983e-08, No Iterations 25
time step continuity errors : sum local = 5.17776e-07, global = -6.21721e-08, cumulative = 0.000319073
ExecutionTime = 18.28 s  ClockTime = 22 s

Courant Number mean: 0.0992328 max: 0.479555
Interface Courant Number mean: 0.011996 max: 0.479485
deltaT = 0.00857143
Time = 0.265714

PIMPLE: iteration 1
smoothSolver:  Solving for alpha.water, Initial residual = 0.00492338, Final residual = 2.69521e-09, No Iterations 3
Phase-1 volume fraction = 0.211801  Min(alpha.water) = -1.46904e-14  Max(alpha.water) = 1
MULES: Correcting alpha.water
MULES: Correcting alpha.water
Phase-1 volume fraction = 0.211801  Min(alpha.water) = -1.98733e-10  Max(alpha.water) = 1
DICPCG:  Solving for p_rgh, Initial residual = 0.0111906, Final residual = 0.000350143, No Iterations 1
time step continuity errors : sum local = 0.00216798, global = -5.7937e-07, cumulative = 0.000318494
DICPCG:  Solving for p_rgh, Initial residual = 0.000387359, Final residual = 1.66427e-05, No Iterations 8
time step continuity errors : sum local = 0.00010177, global = 2.16778e-05, cumulative = 0.000340171
DICPCG:  Solving for p_rgh, Initial residual = 4.31668e-05, Final residual = 9.3416e-08, No Iterations 31
time step continuity errors : sum local = 5.68899e-07, global = 5.37731e-08, cumulative = 0.000340225
ExecutionTime = 18.35 s  ClockTime = 22 s

Courant Number mean: 0.09994 max: 0.480013
Interface Courant Number mean: 0.0115735 max: 0.469056
deltaT = 0.00857143
Time = 0.274286

PIMPLE: iteration 1
smoothSolver:  Solving for alpha.water, Initial residual = 0.00491419, Final residual = 2.35975e-09, No Iterations 3
Phase-1 volume fraction = 0.211801  Min(alpha.water) = -1.28294e-14  Max(alpha.water) = 1
MULES: Correcting alpha.water
MULES: Correcting alpha.water
Phase-1 volume fraction = 0.211801  Min(alpha.water) = -1.21419e-08  Max(alpha.water) = 1
DICPCG:  Solving for p_rgh, Initial residual = 0.0112887, Final residual = 0.00037408, No Iterations 1
time step continuity errors : sum local = 0.00227279, global = -1.67476e-07, cumulative = 0.000340058
DICPCG:  Solving for p_rgh, Initial residual = 0.000415012, Final residual = 1.80354e-05, No Iterations 8
time step continuity errors : sum local = 0.000108254, global = 2.56089e-05, cumulative = 0.000365667
DICPCG:  Solving for p_rgh, Initial residual = 4.60934e-05, Final residual = 7.1561e-08, No Iterations 33
time step continuity errors : sum local = 4.27672e-07, global = -3.98704e-09, cumulative = 0.000365663
ExecutionTime = 18.41 s  ClockTime = 22 s

Courant Number mean: 0.100771 max: 0.486274
Interface Courant Number mean: 0.0113352 max: 0.485969
deltaT = 0.00857143
Time = 0.282857

PIMPLE: iteration 1
smoothSolver:  Solving for alpha.water, Initial residual = 0.00492124, Final residual = 2.02396e-09, No Iterations 3
Phase-1 volume fraction = 0.211801  Min(alpha.water) = -1.11156e-14  Max(alpha.water) = 1
MULES: Correcting alpha.water
MULES: Correcting alpha.water
Phase-1 volume fraction = 0.211801  Min(alpha.water) = -1.74375e-07  Max(alpha.water) = 1
DICPCG:  Solving for p_rgh, Initial residual = 0.0111138, Final residual = 0.000351918, No Iterations 1
time step continuity errors : sum local = 0.0020969, global = -3.5627e-07, cumulative = 0.000365306
DICPCG:  Solving for p_rgh, Initial residual = 0.000388093, Final residual = 1.68627e-05, No Iterations 8
time step continuity errors : sum local = 9.92466e-05, global = 2.44068e-05, cumulative = 0.000389713
DICPCG:  Solving for p_rgh, Initial residual = 4.1137e-05, Final residual = 8.67454e-08, No Iterations 32
time step continuity errors : sum local = 5.08264e-07, global = 3.78129e-08, cumulative = 0.000389751
ExecutionTime = 18.48 s  ClockTime = 22 s

Courant Number mean: 0.101478 max: 0.486693
Interface Courant Number mean: 0.01218 max: 0.480702
deltaT = 0.00857143
Time = 0.291429

PIMPLE: iteration 1
smoothSolver:  Solving for alpha.water, Initial residual = 0.00488503, Final residual = 1.69176e-09, No Iterations 3
Phase-1 volume fraction = 0.211801  Min(alpha.water) = -9.55537e-15  Max(alpha.water) = 1
MULES: Correcting alpha.water
MULES: Correcting alpha.water
Phase-1 volume fraction = 0.211801  Min(alpha.water) = -6.27592e-09  Max(alpha.water) = 1
DICPCG:  Solving for p_rgh, Initial residual = 0.0111862, Final residual = 0.000363587, No Iterations 1
time step continuity errors : sum local = 0.00212214, global = -2.96019e-07, cumulative = 0.000389455
DICPCG:  Solving for p_rgh, Initial residual = 0.00039526, Final residual = 1.71278e-05, No Iterations 8
time step continuity errors : sum local = 9.87426e-05, global = 2.31499e-05, cumulative = 0.000412605
DICPCG:  Solving for p_rgh, Initial residual = 4.06435e-05, Final residual = 8.224e-08, No Iterations 25
time step continuity errors : sum local = 4.71938e-07, global = -5.99315e-08, cumulative = 0.000412545
ExecutionTime = 18.53 s  ClockTime = 22 s

Courant Number mean: 0.102178 max: 0.492342
Interface Courant Number mean: 0.0124246 max: 0.49168
deltaT = 0.00857143
Time = 0.3

PIMPLE: iteration 1
smoothSolver:  Solving for alpha.water, Initial residual = 0.00485944, Final residual = 1.81437e-09, No Iterations 3
Phase-1 volume fraction = 0.211801  Min(alpha.water) = -8.14835e-15  Max(alpha.water) = 1
MULES: Correcting alpha.water
MULES: Correcting alpha.water
Phase-1 volume fraction = 0.211801  Min(alpha.water) = -6.22462e-09  Max(alpha.water) = 1
DICPCG:  Solving for p_rgh, Initial residual = 0.0114763, Final residual = 0.000341979, No Iterations 1
time step continuity errors : sum local = 0.00196557, global = -5.31535e-07, cumulative = 0.000412013
DICPCG:  Solving for p_rgh, Initial residual = 0.00037107, Final residual = 1.70683e-05, No Iterations 8
time step continuity errors : sum local = 9.68476e-05, global = 1.8867e-05, cumulative = 0.00043088
DICPCG:  Solving for p_rgh, Initial residual = 3.91665e-05, Final residual = 9.2958e-08, No Iterations 32
time step continuity errors : sum local = 5.24979e-07, global = -8.5189e-09, cumulative = 0.000430872
ExecutionTime = 18.62 s  ClockTime = 22 s

Courant Number mean: 0.102947 max: 0.49447
Interface Courant Number mean: 0.0125713 max: 0.493241
deltaT = 0.00833333
Time = 0.308333

PIMPLE: iteration 1
smoothSolver:  Solving for alpha.water, Initial residual = 0.00478576, Final residual = 1.53243e-09, No Iterations 3
Phase-1 volume fraction = 0.211801  Min(alpha.water) = -6.91721e-15  Max(alpha.water) = 1
MULES: Correcting alpha.water
MULES: Correcting alpha.water
Phase-1 volume fraction = 0.211801  Min(alpha.water) = -8.26774e-09  Max(alpha.water) = 1
DICPCG:  Solving for p_rgh, Initial residual = 0.0113034, Final residual = 0.000366053, No Iterations 1
time step continuity errors : sum local = 0.00194667, global = -2.09735e-07, cumulative = 0.000430662
DICPCG:  Solving for p_rgh, Initial residual = 0.0003951, Final residual = 1.84723e-05, No Iterations 8
time step continuity errors : sum local = 9.70824e-05, global = 2.16194e-05, cumulative = 0.000452282
DICPCG:  Solving for p_rgh, Initial residual = 4.08731e-05, Final residual = 9.24116e-08, No Iterations 32
time step continuity errors : sum local = 4.83421e-07, global = 2.97696e-08, cumulative = 0.000452311
ExecutionTime = 18.73 s  ClockTime = 22 s

Courant Number mean: 0.100746 max: 0.486193
Interface Courant Number mean: 0.0127814 max: 0.472875
deltaT = 0.00833333
Time = 0.316667

PIMPLE: iteration 1
smoothSolver:  Solving for alpha.water, Initial residual = 0.00480617, Final residual = 1.91395e-09, No Iterations 3
Phase-1 volume fraction = 0.211801  Min(alpha.water) = -5.77879e-15  Max(alpha.water) = 1
MULES: Correcting alpha.water
MULES: Correcting alpha.water
Phase-1 volume fraction = 0.211801  Min(alpha.water) = -6.56517e-07  Max(alpha.water) = 1
DICPCG:  Solving for p_rgh, Initial residual = 0.0111485, Final residual = 0.000353976, No Iterations 1
time step continuity errors : sum local = 0.00185165, global = -3.20173e-07, cumulative = 0.000451991
DICPCG:  Solving for p_rgh, Initial residual = 0.000382788, Final residual = 1.81448e-05, No Iterations 8
time step continuity errors : sum local = 9.38026e-05, global = 1.98712e-05, cumulative = 0.000471862
DICPCG:  Solving for p_rgh, Initial residual = 3.98248e-05, Final residual = 9.0751e-08, No Iterations 32
time step continuity errors : sum local = 4.66933e-07, global = 9.24121e-09, cumulative = 0.000471872
ExecutionTime = 18.78 s  ClockTime = 22 s

Courant Number mean: 0.101554 max: 0.495318
Interface Courant Number mean: 0.013302 max: 0.493994
deltaT = 0.00833333
Time = 0.325

PIMPLE: iteration 1
smoothSolver:  Solving for alpha.water, Initial residual = 0.00476761, Final residual = 2.62832e-09, No Iterations 3
Phase-1 volume fraction = 0.211801  Min(alpha.water) = -4.6615e-15  Max(alpha.water) = 1
MULES: Correcting alpha.water
MULES: Correcting alpha.water
Phase-1 volume fraction = 0.211801  Min(alpha.water) = -1.58867e-08  Max(alpha.water) = 1
DICPCG:  Solving for p_rgh, Initial residual = 0.0110982, Final residual = 0.000340146, No Iterations 1
time step continuity errors : sum local = 0.00175189, global = -3.07817e-07, cumulative = 0.000471564
DICPCG:  Solving for p_rgh, Initial residual = 0.000371339, Final residual = 1.84482e-05, No Iterations 8
time step continuity errors : sum local = 9.39207e-05, global = 1.82009e-05, cumulative = 0.000489765
DICPCG:  Solving for p_rgh, Initial residual = 3.82632e-05, Final residual = 8.11813e-08, No Iterations 32
time step continuity errors : sum local = 4.11381e-07, global = 8.29014e-09, cumulative = 0.000489773
ExecutionTime = 19.14 s  ClockTime = 23 s

Courant Number mean: 0.102161 max: 0.493286
Interface Courant Number mean: 0.0134594 max: 0.480086
deltaT = 0.00833333
Time = 0.333333

PIMPLE: iteration 1
smoothSolver:  Solving for alpha.water, Initial residual = 0.0047096, Final residual = 3.30282e-09, No Iterations 3
Phase-1 volume fraction = 0.211801  Min(alpha.water) = -3.52757e-15  Max(alpha.water) = 1
MULES: Correcting alpha.water
MULES: Correcting alpha.water
Phase-1 volume fraction = 0.211801  Min(alpha.water) = -1.49917e-07  Max(alpha.water) = 1
DICPCG:  Solving for p_rgh, Initial residual = 0.0112933, Final residual = 0.000329806, No Iterations 1
time step continuity errors : sum local = 0.00167309, global = -4.34631e-07, cumulative = 0.000489338
DICPCG:  Solving for p_rgh, Initial residual = 0.000356403, Final residual = 1.73386e-05, No Iterations 8
time step continuity errors : sum local = 8.68966e-05, global = 1.4602e-05, cumulative = 0.00050394
DICPCG:  Solving for p_rgh, Initial residual = 3.73735e-05, Final residual = 8.3548e-08, No Iterations 32
time step continuity errors : sum local = 4.16744e-07, global = 1.26212e-08, cumulative = 0.000503953
ExecutionTime = 19.21 s  ClockTime = 24 s

Courant Number mean: 0.102916 max: 0.501557
Interface Courant Number mean: 0.0138206 max: 0.498593
deltaT = 0.00833333
Time = 0.341667

PIMPLE: iteration 1
smoothSolver:  Solving for alpha.water, Initial residual = 0.00469292, Final residual = 5.22911e-09, No Iterations 3
Phase-1 volume fraction = 0.211801  Min(alpha.water) = -2.33925e-15  Max(alpha.water) = 1
MULES: Correcting alpha.water
MULES: Correcting alpha.water
Phase-1 volume fraction = 0.211801  Min(alpha.water) = -6.40888e-08  Max(alpha.water) = 1
DICPCG:  Solving for p_rgh, Initial residual = 0.0113758, Final residual = 0.000354654, No Iterations 1
time step continuity errors : sum local = 0.00175922, global = -2.78056e-07, cumulative = 0.000503675
DICPCG:  Solving for p_rgh, Initial residual = 0.000382834, Final residual = 1.8558e-05, No Iterations 8
time step continuity errors : sum local = 9.09662e-05, global = 1.6292e-05, cumulative = 0.000519967
DICPCG:  Solving for p_rgh, Initial residual = 3.84751e-05, Final residual = 7.53673e-08, No Iterations 32
time step continuity errors : sum local = 3.67677e-07, global = 3.66605e-08, cumulative = 0.000520004
ExecutionTime = 19.57 s  ClockTime = 24 s

Courant Number mean: 0.103593 max: 0.540246
Interface Courant Number mean: 0.0132125 max: 0.487568
deltaT = 0.00729167
Time = 0.348958

PIMPLE: iteration 1
smoothSolver:  Solving for alpha.water, Initial residual = 0.00409237, Final residual = 3.26367e-09, No Iterations 3
Phase-1 volume fraction = 0.211801  Min(alpha.water) = -1.29249e-15  Max(alpha.water) = 1
MULES: Correcting alpha.water
MULES: Correcting alpha.water
Phase-1 volume fraction = 0.211801  Min(alpha.water) = -8.93028e-08  Max(alpha.water) = 1
DICPCG:  Solving for p_rgh, Initial residual = 0.010375, Final residual = 0.000358823, No Iterations 1
time step continuity errors : sum local = 0.00135929, global = -2.73979e-07, cumulative = 0.00051973
DICPCG:  Solving for p_rgh, Initial residual = 0.000376336, Final residual = 1.78686e-05, No Iterations 8
time step continuity errors : sum local = 6.70207e-05, global = 1.27544e-05, cumulative = 0.000532484
DICPCG:  Solving for p_rgh, Initial residual = 3.5288e-05, Final residual = 9.80941e-08, No Iterations 25
time step continuity errors : sum local = 3.6637e-07, global = -1.30349e-07, cumulative = 0.000532354
ExecutionTime = 19.64 s  ClockTime = 24 s

Courant Number mean: 0.0912564 max: 0.516042
Interface Courant Number mean: 0.0117317 max: 0.428522
deltaT = 0.00729167
Time = 0.35625

PIMPLE: iteration 1
smoothSolver:  Solving for alpha.water, Initial residual = 0.00407857, Final residual = 5.28384e-09, No Iterations 3
Phase-1 volume fraction = 0.211801  Min(alpha.water) = -6.36893e-16  Max(alpha.water) = 1
MULES: Correcting alpha.water
MULES: Correcting alpha.water
Phase-1 volume fraction = 0.211801  Min(alpha.water) = -4.53079e-08  Max(alpha.water) = 1
DICPCG:  Solving for p_rgh, Initial residual = 0.0102235, Final residual = 0.000313061, No Iterations 1
time step continuity errors : sum local = 0.00117851, global = -4.90144e-07, cumulative = 0.000531863
DICPCG:  Solving for p_rgh, Initial residual = 0.000335262, Final residual = 1.65316e-05, No Iterations 8
time step continuity errors : sum local = 6.15802e-05, global = 1.20013e-05, cumulative = 0.000543865
DICPCG:  Solving for p_rgh, Initial residual = 3.35081e-05, Final residual = 7.55164e-08, No Iterations 32
time step continuity errors : sum local = 2.80142e-07, global = -8.6321e-09, cumulative = 0.000543856
ExecutionTime = 19.74 s  ClockTime = 24 s

Courant Number mean: 0.0918796 max: 0.561306
Interface Courant Number mean: 0.0123991 max: 0.440418
deltaT = 0.00625
Time = 0.3625

PIMPLE: iteration 1
smoothSolver:  Solving for alpha.water, Initial residual = 0.00348976, Final residual = 3.27951e-09, No Iterations 3
Phase-1 volume fraction = 0.211801  Min(alpha.water) = -5.95045e-16  Max(alpha.water) = 1
MULES: Correcting alpha.water
MULES: Correcting alpha.water
Phase-1 volume fraction = 0.211801  Min(alpha.water) = -1.66136e-08  Max(alpha.water) = 1
DICPCG:  Solving for p_rgh, Initial residual = 0.00929101, Final residual = 0.00028639, No Iterations 1
time step continuity errors : sum local = 0.00079452, global = -1.2861e-07, cumulative = 0.000543728
DICPCG:  Solving for p_rgh, Initial residual = 0.000303702, Final residual = 1.51196e-05, No Iterations 8
time step continuity errors : sum local = 4.15607e-05, global = 8.8969e-06, cumulative = 0.000552624
DICPCG:  Solving for p_rgh, Initial residual = 2.88797e-05, Final residual = 9.5152e-08, No Iterations 27
time step continuity errors : sum local = 2.6064e-07, global = -1.28207e-08, cumulative = 0.000552612
ExecutionTime = 22.4 s  ClockTime = 28 s

Courant Number mean: 0.0791279 max: 0.509264
Interface Courant Number mean: 0.0104557 max: 0.371649
deltaT = 0.00625
Time = 0.36875

PIMPLE: iteration 1
smoothSolver:  Solving for alpha.water, Initial residual = 0.00346357, Final residual = 4.54077e-09, No Iterations 3
Phase-1 volume fraction = 0.211801  Min(alpha.water) = -5.54504e-16  Max(alpha.water) = 1
MULES: Correcting alpha.water
MULES: Correcting alpha.water
Phase-1 volume fraction = 0.211801  Min(alpha.water) = -1.81092e-08  Max(alpha.water) = 1
DICPCG:  Solving for p_rgh, Initial residual = 0.00930611, Final residual = 0.000305725, No Iterations 1
time step continuity errors : sum local = 0.000834296, global = -1.68571e-07, cumulative = 0.000552443
DICPCG:  Solving for p_rgh, Initial residual = 0.000323292, Final residual = 1.56622e-05, No Iterations 8
time step continuity errors : sum local = 4.23625e-05, global = 9.51534e-06, cumulative = 0.000561958
DICPCG:  Solving for p_rgh, Initial residual = 3.09474e-05, Final residual = 7.74626e-08, No Iterations 32
time step continuity errors : sum local = 2.08789e-07, global = -2.95276e-09, cumulative = 0.000561955
ExecutionTime = 23.86 s  ClockTime = 29 s

Courant Number mean: 0.0796008 max: 0.539023
Interface Courant Number mean: 0.0107174 max: 0.37467
deltaT = 0.00625
Time = 0.375

PIMPLE: iteration 1
smoothSolver:  Solving for alpha.water, Initial residual = 0.00345451, Final residual = 6.85698e-09, No Iterations 3
Phase-1 volume fraction = 0.211801  Min(alpha.water) = -5.16481e-16  Max(alpha.water) = 1
MULES: Correcting alpha.water
MULES: Correcting alpha.water
Phase-1 volume fraction = 0.211801  Min(alpha.water) = -1.55665e-08  Max(alpha.water) = 1
DICPCG:  Solving for p_rgh, Initial residual = 0.00937191, Final residual = 0.000332832, No Iterations 1
time step continuity errors : sum local = 0.000896524, global = -1.12362e-07, cumulative = 0.000561843
DICPCG:  Solving for p_rgh, Initial residual = 0.000351618, Final residual = 1.71917e-05, No Iterations 8
time step continuity errors : sum local = 4.59177e-05, global = 1.04012e-05, cumulative = 0.000572244
DICPCG:  Solving for p_rgh, Initial residual = 3.39035e-05, Final residual = 9.5541e-08, No Iterations 24
time step continuity errors : sum local = 2.54297e-07, global = -2.91429e-08, cumulative = 0.000572215
ExecutionTime = 23.94 s  ClockTime = 29 s

Courant Number mean: 0.0800548 max: 0.561845
Interface Courant Number mean: 0.0107305 max: 0.385625
deltaT = 0.00625
Time = 0.38125

PIMPLE: iteration 1
smoothSolver:  Solving for alpha.water, Initial residual = 0.00344767, Final residual = 1.95705e-10, No Iterations 4
Phase-1 volume fraction = 0.211801  Min(alpha.water) = -4.80777e-16  Max(alpha.water) = 1
MULES: Correcting alpha.water
MULES: Correcting alpha.water
Phase-1 volume fraction = 0.211801  Min(alpha.water) = -1.28239e-08  Max(alpha.water) = 1
DICPCG:  Solving for p_rgh, Initial residual = 0.00934373, Final residual = 0.000349013, No Iterations 1
time step continuity errors : sum local = 0.000932526, global = -2.29253e-07, cumulative = 0.000571986
DICPCG:  Solving for p_rgh, Initial residual = 0.000369247, Final residual = 1.37606e-05, No Iterations 9
time step continuity errors : sum local = 3.64664e-05, global = 4.66121e-06, cumulative = 0.000576647
DICPCG:  Solving for p_rgh, Initial residual = 3.25024e-05, Final residual = 9.81856e-08, No Iterations 31
time step continuity errors : sum local = 2.59257e-07, global = 6.5307e-09, cumulative = 0.000576654
ExecutionTime = 24.08 s  ClockTime = 29 s

Courant Number mean: 0.0804067 max: 0.565789
Interface Courant Number mean: 0.0107721 max: 0.378145
deltaT = 0.00625
Time = 0.3875

PIMPLE: iteration 1
smoothSolver:  Solving for alpha.water, Initial residual = 0.00343358, Final residual = 2.54864e-10, No Iterations 4
Phase-1 volume fraction = 0.211801  Min(alpha.water) = -4.47228e-16  Max(alpha.water) = 1
MULES: Correcting alpha.water
MULES: Correcting alpha.water
Phase-1 volume fraction = 0.211801  Min(alpha.water) = -3.95326e-07  Max(alpha.water) = 1
DICPCG:  Solving for p_rgh, Initial residual = 0.00933856, Final residual = 0.000326035, No Iterations 1
time step continuity errors : sum local = 0.000871569, global = -1.33376e-07, cumulative = 0.00057652
DICPCG:  Solving for p_rgh, Initial residual = 0.000345795, Final residual = 1.7028e-05, No Iterations 8
time step continuity errors : sum local = 4.51427e-05, global = 1.12661e-05, cumulative = 0.000587786
DICPCG:  Solving for p_rgh, Initial residual = 3.49865e-05, Final residual = 9.84921e-08, No Iterations 31
time step continuity errors : sum local = 2.60244e-07, global = -1.68594e-08, cumulative = 0.000587769
ExecutionTime = 24.15 s  ClockTime = 29 s

Courant Number mean: 0.0807928 max: 0.57721
Interface Courant Number mean: 0.0104515 max: 0.380616
deltaT = 0.00625
Time = 0.39375

PIMPLE: iteration 1
smoothSolver:  Solving for alpha.water, Initial residual = 0.00341977, Final residual = 3.4434e-10, No Iterations 4
Phase-1 volume fraction = 0.211801  Min(alpha.water) = -4.15826e-16  Max(alpha.water) = 1
MULES: Correcting alpha.water
MULES: Correcting alpha.water
Phase-1 volume fraction = 0.211801  Min(alpha.water) = -2.16491e-07  Max(alpha.water) = 1
DICPCG:  Solving for p_rgh, Initial residual = 0.00936584, Final residual = 0.000349525, No Iterations 1
time step continuity errors : sum local = 0.000923724, global = -2.33601e-07, cumulative = 0.000587536
DICPCG:  Solving for p_rgh, Initial residual = 0.000368931, Final residual = 1.32145e-05, No Iterations 9
time step continuity errors : sum local = 3.46362e-05, global = 5.19301e-06, cumulative = 0.000592729
DICPCG:  Solving for p_rgh, Initial residual = 3.2146e-05, Final residual = 9.4249e-08, No Iterations 29
time step continuity errors : sum local = 2.4617e-07, global = 3.44198e-08, cumulative = 0.000592763
ExecutionTime = 24.22 s  ClockTime = 29 s

Courant Number mean: 0.0811487 max: 0.583579
Interface Courant Number mean: 0.0106833 max: 0.411615
deltaT = 0.00625
Time = 0.4

PIMPLE: iteration 1
smoothSolver:  Solving for alpha.water, Initial residual = 0.00340402, Final residual = 4.42384e-10, No Iterations 4
Phase-1 volume fraction = 0.211801  Min(alpha.water) = -3.86407e-16  Max(alpha.water) = 1
MULES: Correcting alpha.water
MULES: Correcting alpha.water
Phase-1 volume fraction = 0.211801  Min(alpha.water) = -1.41035e-07  Max(alpha.water) = 1
DICPCG:  Solving for p_rgh, Initial residual = 0.00927846, Final residual = 0.000304203, No Iterations 1
time step continuity errors : sum local = 0.00079887, global = -7.54434e-08, cumulative = 0.000592688
DICPCG:  Solving for p_rgh, Initial residual = 0.000325417, Final residual = 1.21127e-05, No Iterations 9
time step continuity errors : sum local = 3.1546e-05, global = 3.57367e-06, cumulative = 0.000596261
DICPCG:  Solving for p_rgh, Initial residual = 2.93843e-05, Final residual = 9.50411e-08, No Iterations 30
time step continuity errors : sum local = 2.46667e-07, global = -3.03829e-09, cumulative = 0.000596258
ExecutionTime = 24.32 s  ClockTime = 29 s

Courant Number mean: 0.0814125 max: 0.580183
Interface Courant Number mean: 0.0114403 max: 0.549837
deltaT = 0.00526316
Time = 0.405263

PIMPLE: iteration 1
smoothSolver:  Solving for alpha.water, Initial residual = 0.00285208, Final residual = 1.56581e-10, No Iterations 4
Phase-1 volume fraction = 0.211801  Min(alpha.water) = -3.63616e-16  Max(alpha.water) = 1
MULES: Correcting alpha.water
MULES: Correcting alpha.water
Phase-1 volume fraction = 0.211801  Min(alpha.water) = -1.34942e-08  Max(alpha.water) = 1
DICPCG:  Solving for p_rgh, Initial residual = 0.00814334, Final residual = 0.000290858, No Iterations 1
time step continuity errors : sum local = 0.000547933, global = -1.67006e-07, cumulative = 0.000596091
DICPCG:  Solving for p_rgh, Initial residual = 0.000306174, Final residual = 1.04949e-05, No Iterations 9
time step continuity errors : sum local = 1.9633e-05, global = 1.4021e-06, cumulative = 0.000597494
DICPCG:  Solving for p_rgh, Initial residual = 2.40621e-05, Final residual = 7.51758e-08, No Iterations 31
time step continuity errors : sum local = 1.40219e-07, global = -8.5425e-09, cumulative = 0.000597485
ExecutionTime = 24.41 s  ClockTime = 29 s

Courant Number mean: 0.0688149 max: 0.499557
Interface Courant Number mean: 0.00954629 max: 0.461323
deltaT = 0.00526316
Time = 0.410526

PIMPLE: iteration 1
smoothSolver:  Solving for alpha.water, Initial residual = 0.00285982, Final residual = 1.7381e-10, No Iterations 4
Phase-1 volume fraction = 0.211801  Min(alpha.water) = -3.41934e-16  Max(alpha.water) = 1
MULES: Correcting alpha.water
MULES: Correcting alpha.water
Phase-1 volume fraction = 0.211801  Min(alpha.water) = -1.26609e-08  Max(alpha.water) = 1
DICPCG:  Solving for p_rgh, Initial residual = 0.00808829, Final residual = 0.000272107, No Iterations 1
time step continuity errors : sum local = 0.000511942, global = -6.06432e-08, cumulative = 0.000597424
DICPCG:  Solving for p_rgh, Initial residual = 0.000290624, Final residual = 1.43258e-05, No Iterations 8
time step continuity errors : sum local = 2.67621e-05, global = 5.66423e-06, cumulative = 0.000603089
DICPCG:  Solving for p_rgh, Initial residual = 2.85559e-05, Final residual = 8.77233e-08, No Iterations 29
time step continuity errors : sum local = 1.63429e-07, global = -3.63288e-08, cumulative = 0.000603052
ExecutionTime = 27.44 s  ClockTime = 35 s

Courant Number mean: 0.0690721 max: 0.509963
Interface Courant Number mean: 0.00976097 max: 0.487864
deltaT = 0.00526316
Time = 0.415789

PIMPLE: iteration 1
smoothSolver:  Solving for alpha.water, Initial residual = 0.00285653, Final residual = 1.76877e-10, No Iterations 4
Phase-1 volume fraction = 0.211801  Min(alpha.water) = -3.21316e-16  Max(alpha.water) = 1
MULES: Correcting alpha.water
MULES: Correcting alpha.water
Phase-1 volume fraction = 0.211801  Min(alpha.water) = -5.17796e-08  Max(alpha.water) = 1
DICPCG:  Solving for p_rgh, Initial residual = 0.00818948, Final residual = 0.000288427, No Iterations 1
time step continuity errors : sum local = 0.000538267, global = -1.50788e-07, cumulative = 0.000602901
DICPCG:  Solving for p_rgh, Initial residual = 0.000308843, Final residual = 1.23668e-05, No Iterations 9
time step continuity errors : sum local = 2.29157e-05, global = 2.25562e-06, cumulative = 0.000605157
DICPCG:  Solving for p_rgh, Initial residual = 2.96969e-05, Final residual = 8.12763e-08, No Iterations 29
time step continuity errors : sum local = 1.50179e-07, global = -5.26853e-09, cumulative = 0.000605152
ExecutionTime = 28.23 s  ClockTime = 35 s

Courant Number mean: 0.0692814 max: 0.53015
Interface Courant Number mean: 0.00970118 max: 0.502603
deltaT = 0.00495356
Time = 0.420743

PIMPLE: iteration 1
smoothSolver:  Solving for alpha.water, Initial residual = 0.0026775, Final residual = 9.03852e-09, No Iterations 3
Phase-1 volume fraction = 0.211801  Min(alpha.water) = -3.02956e-16  Max(alpha.water) = 1
MULES: Correcting alpha.water
MULES: Correcting alpha.water
Phase-1 volume fraction = 0.211801  Min(alpha.water) = -3.95464e-08  Max(alpha.water) = 1
DICPCG:  Solving for p_rgh, Initial residual = 0.00777155, Final residual = 0.000290544, No Iterations 1
time step continuity errors : sum local = 0.00047854, global = -6.39264e-08, cumulative = 0.000605088
DICPCG:  Solving for p_rgh, Initial residual = 0.000309204, Final residual = 1.52045e-05, No Iterations 8
time step continuity errors : sum local = 2.48842e-05, global = 5.57482e-06, cumulative = 0.000610663
DICPCG:  Solving for p_rgh, Initial residual = 3.08558e-05, Final residual = 9.82556e-08, No Iterations 31
time step continuity errors : sum local = 1.60399e-07, global = -1.01528e-08, cumulative = 0.000610653
ExecutionTime = 29.03 s  ClockTime = 37 s

Courant Number mean: 0.0654391 max: 0.516075
Interface Courant Number mean: 0.00945574 max: 0.482472
deltaT = 0.00466217
Time = 0.425405

PIMPLE: iteration 1
smoothSolver:  Solving for alpha.water, Initial residual = 0.00251575, Final residual = 6.07475e-09, No Iterations 3
Phase-1 volume fraction = 0.211801  Min(alpha.water) = -2.86531e-16  Max(alpha.water) = 1
MULES: Correcting alpha.water
MULES: Correcting alpha.water
Phase-1 volume fraction = 0.211801  Min(alpha.water) = -7.02793e-08  Max(alpha.water) = 1
DICPCG:  Solving for p_rgh, Initial residual = 0.00738045, Final residual = 0.000297236, No Iterations 1
time step continuity errors : sum local = 0.000433203, global = -9.023e-08, cumulative = 0.000610562
DICPCG:  Solving for p_rgh, Initial residual = 0.00031627, Final residual = 1.53389e-05, No Iterations 8
time step continuity errors : sum local = 2.22251e-05, global = 5.03659e-06, cumulative = 0.000615599
DICPCG:  Solving for p_rgh, Initial residual = 3.05521e-05, Final residual = 8.11528e-08, No Iterations 32
time step continuity errors : sum local = 1.17308e-07, global = -7.22818e-09, cumulative = 0.000615592
ExecutionTime = 29.8 s  ClockTime = 38 s

Courant Number mean: 0.0618254 max: 0.499847
Interface Courant Number mean: 0.00892613 max: 0.469341
deltaT = 0.00466217
Time = 0.430067

PIMPLE: iteration 1
smoothSolver:  Solving for alpha.water, Initial residual = 0.00251489, Final residual = 5.71978e-09, No Iterations 3
Phase-1 volume fraction = 0.211801  Min(alpha.water) = -2.70758e-16  Max(alpha.water) = 1
MULES: Correcting alpha.water
MULES: Correcting alpha.water
Phase-1 volume fraction = 0.211801  Min(alpha.water) = -1.11985e-07  Max(alpha.water) = 1
DICPCG:  Solving for p_rgh, Initial residual = 0.0073905, Final residual = 0.000321581, No Iterations 1
time step continuity errors : sum local = 0.000466396, global = -4.84895e-08, cumulative = 0.000615543
DICPCG:  Solving for p_rgh, Initial residual = 0.000342563, Final residual = 1.28766e-05, No Iterations 9
time step continuity errors : sum local = 1.85733e-05, global = 1.92964e-06, cumulative = 0.000617473
DICPCG:  Solving for p_rgh, Initial residual = 2.88969e-05, Final residual = 7.58375e-08, No Iterations 29
time step continuity errors : sum local = 1.09113e-07, global = -7.27684e-09, cumulative = 0.000617466
ExecutionTime = 29.86 s  ClockTime = 38 s

Courant Number mean: 0.0620195 max: 0.511757
Interface Courant Number mean: 0.00896905 max: 0.485396
deltaT = 0.00466217
Time = 0.43473

PIMPLE: iteration 1
smoothSolver:  Solving for alpha.water, Initial residual = 0.00250576, Final residual = 5.15212e-09, No Iterations 3
Phase-1 volume fraction = 0.211801  Min(alpha.water) = -2.55604e-16  Max(alpha.water) = 1
MULES: Correcting alpha.water
MULES: Correcting alpha.water
Phase-1 volume fraction = 0.211801  Min(alpha.water) = -1.10404e-07  Max(alpha.water) = 1
DICPCG:  Solving for p_rgh, Initial residual = 0.0075122, Final residual = 0.000309946, No Iterations 1
time step continuity errors : sum local = 0.000453964, global = -7.54384e-08, cumulative = 0.00061739
DICPCG:  Solving for p_rgh, Initial residual = 0.000329928, Final residual = 1.13431e-05, No Iterations 9
time step continuity errors : sum local = 1.65202e-05, global = 1.93089e-06, cumulative = 0.000619321
DICPCG:  Solving for p_rgh, Initial residual = 2.56517e-05, Final residual = 9.74523e-08, No Iterations 27
time step continuity errors : sum local = 1.41577e-07, global = 2.6463e-08, cumulative = 0.000619347
ExecutionTime = 29.92 s  ClockTime = 38 s

Courant Number mean: 0.0622124 max: 0.522127
Interface Courant Number mean: 0.00921297 max: 0.499568
deltaT = 0.00435136
Time = 0.439081

PIMPLE: iteration 1
smoothSolver:  Solving for alpha.water, Initial residual = 0.00232804, Final residual = 3.54841e-09, No Iterations 3
Phase-1 volume fraction = 0.211801  Min(alpha.water) = -2.42121e-16  Max(alpha.water) = 1
MULES: Correcting alpha.water
MULES: Correcting alpha.water
Phase-1 volume fraction = 0.211801  Min(alpha.water) = -3.74519e-08  Max(alpha.water) = 1
DICPCG:  Solving for p_rgh, Initial residual = 0.00700941, Final residual = 0.000251433, No Iterations 1
time step continuity errors : sum local = 0.000322631, global = -1.26788e-08, cumulative = 0.000619335
DICPCG:  Solving for p_rgh, Initial residual = 0.000264218, Final residual = 8.33828e-06, No Iterations 9
time step continuity errors : sum local = 1.06413e-05, global = 9.13107e-07, cumulative = 0.000620248
DICPCG:  Solving for p_rgh, Initial residual = 2.00445e-05, Final residual = 8.97147e-08, No Iterations 23
time step continuity errors : sum local = 1.14227e-07, global = -3.22179e-08, cumulative = 0.000620216
ExecutionTime = 29.98 s  ClockTime = 38 s

Courant Number mean: 0.0582553 max: 0.495138
Interface Courant Number mean: 0.00856138 max: 0.44926
deltaT = 0.00435136
Time = 0.443432

PIMPLE: iteration 1
smoothSolver:  Solving for alpha.water, Initial residual = 0.00232067, Final residual = 3.93864e-09, No Iterations 3
Phase-1 volume fraction = 0.211801  Min(alpha.water) = -2.2903e-16  Max(alpha.water) = 1
MULES: Correcting alpha.water
MULES: Correcting alpha.water
Phase-1 volume fraction = 0.211801  Min(alpha.water) = -1.97658e-10  Max(alpha.water) = 1
DICPCG:  Solving for p_rgh, Initial residual = 0.00697841, Final residual = 0.000253036, No Iterations 1
time step continuity errors : sum local = 0.000322854, global = -1.24349e-07, cumulative = 0.000620091
DICPCG:  Solving for p_rgh, Initial residual = 0.000269036, Final residual = 8.91112e-06, No Iterations 9
time step continuity errors : sum local = 1.13095e-05, global = 1.00855e-06, cumulative = 0.0006211
DICPCG:  Solving for p_rgh, Initial residual = 2.0345e-05, Final residual = 9.37203e-08, No Iterations 28
time step continuity errors : sum local = 1.1867e-07, global = -1.47473e-08, cumulative = 0.000621085
ExecutionTime = 30.04 s  ClockTime = 38 s

Courant Number mean: 0.0584546 max: 0.500246
Interface Courant Number mean: 0.00862226 max: 0.45171
deltaT = 0.00435136
Time = 0.447784

PIMPLE: iteration 1
smoothSolver:  Solving for alpha.water, Initial residual = 0.00230915, Final residual = 4.58436e-09, No Iterations 3
Phase-1 volume fraction = 0.211801  Min(alpha.water) = -2.16324e-16  Max(alpha.water) = 1
MULES: Correcting alpha.water
MULES: Correcting alpha.water
Phase-1 volume fraction = 0.211801  Min(alpha.water) = -5.36697e-09  Max(alpha.water) = 1
DICPCG:  Solving for p_rgh, Initial residual = 0.00697179, Final residual = 0.00025511, No Iterations 1
time step continuity errors : sum local = 0.000323668, global = -4.32792e-08, cumulative = 0.000621042
DICPCG:  Solving for p_rgh, Initial residual = 0.000271692, Final residual = 1.00062e-05, No Iterations 9
time step continuity errors : sum local = 1.26274e-05, global = 6.10899e-07, cumulative = 0.000621653
DICPCG:  Solving for p_rgh, Initial residual = 2.16341e-05, Final residual = 9.83256e-08, No Iterations 27
time step continuity errors : sum local = 1.23801e-07, global = 2.27999e-09, cumulative = 0.000621655
ExecutionTime = 30.11 s  ClockTime = 38 s

Courant Number mean: 0.0586225 max: 0.503851
Interface Courant Number mean: 0.00876458 max: 0.452004
deltaT = 0.00435136
Time = 0.452135

PIMPLE: iteration 1
smoothSolver:  Solving for alpha.water, Initial residual = 0.00230279, Final residual = 5.26676e-09, No Iterations 3
Phase-1 volume fraction = 0.211801  Min(alpha.water) = -2.04066e-16  Max(alpha.water) = 1
MULES: Correcting alpha.water
MULES: Correcting alpha.water
Phase-1 volume fraction = 0.211801  Min(alpha.water) = -7.3948e-11  Max(alpha.water) = 1
DICPCG:  Solving for p_rgh, Initial residual = 0.00690991, Final residual = 0.000259712, No Iterations 1
time step continuity errors : sum local = 0.000327979, global = -3.5086e-08, cumulative = 0.00062162
DICPCG:  Solving for p_rgh, Initial residual = 0.000280417, Final residual = 1.04501e-05, No Iterations 9
time step continuity errors : sum local = 1.31283e-05, global = 3.05643e-07, cumulative = 0.000621926
DICPCG:  Solving for p_rgh, Initial residual = 2.29542e-05, Final residual = 8.34646e-08, No Iterations 23
time step continuity errors : sum local = 1.04615e-07, global = 2.09985e-08, cumulative = 0.000621947
ExecutionTime = 30.6 s  ClockTime = 39 s

Courant Number mean: 0.0587781 max: 0.504509
Interface Courant Number mean: 0.00878278 max: 0.483211
deltaT = 0.00435136
Time = 0.456486

PIMPLE: iteration 1
smoothSolver:  Solving for alpha.water, Initial residual = 0.00230794, Final residual = 5.88791e-09, No Iterations 3
Phase-1 volume fraction = 0.211801  Min(alpha.water) = -1.92243e-16  Max(alpha.water) = 1
MULES: Correcting alpha.water
MULES: Correcting alpha.water
Phase-1 volume fraction = 0.211801  Min(alpha.water) = -1.20733e-09  Max(alpha.water) = 1
DICPCG:  Solving for p_rgh, Initial residual = 0.00710219, Final residual = 0.000252507, No Iterations 1
time step continuity errors : sum local = 0.000321548, global = -1.16271e-09, cumulative = 0.000621945
DICPCG:  Solving for p_rgh, Initial residual = 0.000274134, Final residual = 1.30876e-05, No Iterations 8
time step continuity errors : sum local = 1.65734e-05, global = 2.95183e-06, cumulative = 0.000624897
DICPCG:  Solving for p_rgh, Initial residual = 2.47058e-05, Final residual = 8.97075e-08, No Iterations 31
time step continuity errors : sum local = 1.13359e-07, global = -4.95925e-09, cumulative = 0.000624892
ExecutionTime = 33.02 s  ClockTime = 42 s

Courant Number mean: 0.0589592 max: 0.501317
Interface Courant Number mean: 0.00880314 max: 0.473896
deltaT = 0.00435136
Time = 0.460838

PIMPLE: iteration 1
smoothSolver:  Solving for alpha.water, Initial residual = 0.00231595, Final residual = 6.47836e-09, No Iterations 3
Phase-1 volume fraction = 0.211801  Min(alpha.water) = -1.8083e-16  Max(alpha.water) = 1
MULES: Correcting alpha.water
MULES: Correcting alpha.water
Phase-1 volume fraction = 0.211801  Min(alpha.water) = -3.02713e-09  Max(alpha.water) = 1
DICPCG:  Solving for p_rgh, Initial residual = 0.00706384, Final residual = 0.000262298, No Iterations 1
time step continuity errors : sum local = 0.000331037, global = -7.3025e-08, cumulative = 0.000624819
DICPCG:  Solving for p_rgh, Initial residual = 0.000284462, Final residual = 1.38099e-05, No Iterations 8
time step continuity errors : sum local = 1.73375e-05, global = 3.23218e-06, cumulative = 0.000628051
DICPCG:  Solving for p_rgh, Initial residual = 2.61734e-05, Final residual = 9.45783e-08, No Iterations 31
time step continuity errors : sum local = 1.18486e-07, global = -7.15373e-09, cumulative = 0.000628044
ExecutionTime = 33.24 s  ClockTime = 42 s

Courant Number mean: 0.0591547 max: 0.494583
Interface Courant Number mean: 0.00889188 max: 0.464525
deltaT = 0.00435136
Time = 0.465189

PIMPLE: iteration 1
smoothSolver:  Solving for alpha.water, Initial residual = 0.00232105, Final residual = 6.98785e-09, No Iterations 3
Phase-1 volume fraction = 0.211801  Min(alpha.water) = -1.69793e-16  Max(alpha.water) = 1
MULES: Correcting alpha.water
MULES: Correcting alpha.water
Phase-1 volume fraction = 0.211801  Min(alpha.water) = -3.00218e-09  Max(alpha.water) = 1
DICPCG:  Solving for p_rgh, Initial residual = 0.00706083, Final residual = 0.000276819, No Iterations 1
time step continuity errors : sum local = 0.000347074, global = -5.52586e-08, cumulative = 0.000627989
DICPCG:  Solving for p_rgh, Initial residual = 0.000299237, Final residual = 1.43898e-05, No Iterations 8
time step continuity errors : sum local = 1.79499e-05, global = 3.48663e-06, cumulative = 0.000631476
DICPCG:  Solving for p_rgh, Initial residual = 2.74165e-05, Final residual = 9.53513e-08, No Iterations 25
time step continuity errors : sum local = 1.1869e-07, global = -2.45482e-08, cumulative = 0.000631451
ExecutionTime = 33.65 s  ClockTime = 43 s

Courant Number mean: 0.0593416 max: 0.485286
Interface Courant Number mean: 0.00895437 max: 0.45627
deltaT = 0.00435136
Time = 0.46954

PIMPLE: iteration 1
smoothSolver:  Solving for alpha.water, Initial residual = 0.00232302, Final residual = 7.34812e-09, No Iterations 3
Phase-1 volume fraction = 0.211801  Min(alpha.water) = -1.59098e-16  Max(alpha.water) = 1
MULES: Correcting alpha.water
MULES: Correcting alpha.water
Phase-1 volume fraction = 0.211801  Min(alpha.water) = -1.5013e-08  Max(alpha.water) = 1
DICPCG:  Solving for p_rgh, Initial residual = 0.00700828, Final residual = 0.000286072, No Iterations 1
time step continuity errors : sum local = 0.000357722, global = -9.45043e-08, cumulative = 0.000631357
DICPCG:  Solving for p_rgh, Initial residual = 0.000308113, Final residual = 1.26364e-05, No Iterations 9
time step continuity errors : sum local = 1.57227e-05, global = 3.62683e-07, cumulative = 0.000631719
DICPCG:  Solving for p_rgh, Initial residual = 2.55133e-05, Final residual = 7.84176e-08, No Iterations 27
time step continuity errors : sum local = 9.7347e-08, global = 9.61962e-09, cumulative = 0.000631729
ExecutionTime = 33.79 s  ClockTime = 43 s

Courant Number mean: 0.059489 max: 0.474629
Interface Courant Number mean: 0.00918695 max: 0.448619
deltaT = 0.00435136
Time = 0.473892

PIMPLE: iteration 1
[...]
Phase-1 volume fraction = 0.211728  Min(alpha.water) = -4.58158e-05  Max(alpha.water) = 1.00001
MULES: Correcting alpha.water
MULES: Correcting alpha.water
Phase-1 volume fraction = 0.211728  Min(alpha.water) = -4.58158e-05  Max(alpha.water) = 1.00001
DICPCG:  Solving for p_rgh, Initial residual = 0.00892857, Final residual = 0.000363038, No Iterations 1
time step continuity errors : sum local = 0.00500102, global = 1.66105e-06, cumulative = 0.00214179
DICPCG:  Solving for p_rgh, Initial residual = 0.000395037, Final residual = 1.70592e-05, No Iterations 6
time step continuity errors : sum local = 0.000234054, global = -3.1411e-06, cumulative = 0.00213865
DICPCG:  Solving for p_rgh, Initial residual = 4.35659e-05, Final residual = 7.52302e-08, No Iterations 28
time step continuity errors : sum local = 1.03258e-06, global = 2.13161e-07, cumulative = 0.00213887
ExecutionTime = 245.18 s  ClockTime = 295 s

Courant Number mean: 0.0863428 max: 0.572812
Interface Courant Number mean: 0.0142466 max: 0.572812
deltaT = 0.01875
Time = 7.8

PIMPLE: iteration 1
smoothSolver:  Solving for alpha.water, Initial residual = 0.00217493, Final residual = 2.43395e-10, No Iterations 3
Phase-1 volume fraction = 0.211728  Min(alpha.water) = -3.96825e-05  Max(alpha.water) = 1.00001
MULES: Correcting alpha.water
MULES: Correcting alpha.water
Phase-1 volume fraction = 0.211728  Min(alpha.water) = -3.96825e-05  Max(alpha.water) = 1.00001
DICPCG:  Solving for p_rgh, Initial residual = 0.00878872, Final residual = 0.000336535, No Iterations 1
time step continuity errors : sum local = 0.00466244, global = 1.54408e-06, cumulative = 0.00214041
DICPCG:  Solving for p_rgh, Initial residual = 0.000369625, Final residual = 1.71178e-05, No Iterations 6
time step continuity errors : sum local = 0.000236174, global = -5.02072e-06, cumulative = 0.00213539
DICPCG:  Solving for p_rgh, Initial residual = 4.2124e-05, Final residual = 9.82635e-08, No Iterations 27
time step continuity errors : sum local = 1.35645e-06, global = 1.90233e-07, cumulative = 0.00213558
ExecutionTime = 245.4 s  ClockTime = 295 s

Courant Number mean: 0.0867043 max: 0.589318
Interface Courant Number mean: 0.0141461 max: 0.50026
deltaT = 0.0166667
Time = 7.81667

PIMPLE: iteration 1
smoothSolver:  Solving for alpha.water, Initial residual = 0.00192196, Final residual = 1.27537e-10, No Iterations 3
Phase-1 volume fraction = 0.211728  Min(alpha.water) = -3.44367e-05  Max(alpha.water) = 1.00001
MULES: Correcting alpha.water
MULES: Correcting alpha.water
Phase-1 volume fraction = 0.211728  Min(alpha.water) = -3.44367e-05  Max(alpha.water) = 1.00001
DICPCG:  Solving for p_rgh, Initial residual = 0.00796114, Final residual = 0.000288821, No Iterations 1
time step continuity errors : sum local = 0.00322268, global = 1.34131e-06, cumulative = 0.00213692
DICPCG:  Solving for p_rgh, Initial residual = 0.000316181, Final residual = 1.36709e-05, No Iterations 6
time step continuity errors : sum local = 0.00015199, global = -3.75674e-07, cumulative = 0.00213654
DICPCG:  Solving for p_rgh, Initial residual = 3.25114e-05, Final residual = 9.73243e-08, No Iterations 26
time step continuity errors : sum local = 1.08248e-06, global = 1.10835e-07, cumulative = 0.00213666
ExecutionTime = 245.48 s  ClockTime = 295 s

Courant Number mean: 0.077307 max: 0.538143
Interface Courant Number mean: 0.0125509 max: 0.464114
deltaT = 0.0166667
Time = 7.83333

PIMPLE: iteration 1
smoothSolver:  Solving for alpha.water, Initial residual = 0.00190723, Final residual = 1.15075e-10, No Iterations 3
Phase-1 volume fraction = 0.211728  Min(alpha.water) = -2.95797e-05  Max(alpha.water) = 1.00001
MULES: Correcting alpha.water
MULES: Correcting alpha.water
Phase-1 volume fraction = 0.211728  Min(alpha.water) = -2.95797e-05  Max(alpha.water) = 1.00001
DICPCG:  Solving for p_rgh, Initial residual = 0.00785063, Final residual = 0.000283983, No Iterations 1
time step continuity errors : sum local = 0.00317253, global = 7.28909e-07, cumulative = 0.00213738
DICPCG:  Solving for p_rgh, Initial residual = 0.000312692, Final residual = 1.43385e-05, No Iterations 6
time step continuity errors : sum local = 0.000159593, global = -3.10928e-06, cumulative = 0.00213428
DICPCG:  Solving for p_rgh, Initial residual = 3.34662e-05, Final residual = 9.76811e-08, No Iterations 26
time step continuity errors : sum local = 1.08767e-06, global = 1.46328e-07, cumulative = 0.00213442
ExecutionTime = 245.55 s  ClockTime = 295 s

Courant Number mean: 0.077485 max: 0.564044
Interface Courant Number mean: 0.0124924 max: 0.485696
deltaT = 0.0133333
Time = 7.84667

PIMPLE: iteration 1
smoothSolver:  Solving for alpha.water, Initial residual = 0.00151119, Final residual = 9.6793e-09, No Iterations 2
Phase-1 volume fraction = 0.211728  Min(alpha.water) = -2.59698e-05  Max(alpha.water) = 1.00001
MULES: Correcting alpha.water
MULES: Correcting alpha.water
Phase-1 volume fraction = 0.211728  Min(alpha.water) = -2.59698e-05  Max(alpha.water) = 1.00001
DICPCG:  Solving for p_rgh, Initial residual = 0.00650907, Final residual = 0.000225144, No Iterations 1
time step continuity errors : sum local = 0.0016521, global = 7.2219e-07, cumulative = 0.00213514
DICPCG:  Solving for p_rgh, Initial residual = 0.000244649, Final residual = 1.02774e-05, No Iterations 6
time step continuity errors : sum local = 7.52067e-05, global = 1.20545e-06, cumulative = 0.00213635
DICPCG:  Solving for p_rgh, Initial residual = 2.14136e-05, Final residual = 9.30733e-08, No Iterations 25
time step continuity errors : sum local = 6.81357e-07, global = 7.36317e-08, cumulative = 0.00213642
ExecutionTime = 245.61 s  ClockTime = 295 s

Courant Number mean: 0.0620591 max: 0.479627
Interface Courant Number mean: 0.00991845 max: 0.400081
deltaT = 0.0133333
Time = 7.86

PIMPLE: iteration 1
smoothSolver:  Solving for alpha.water, Initial residual = 0.00150074, Final residual = 9.75332e-09, No Iterations 2
Phase-1 volume fraction = 0.211728  Min(alpha.water) = -2.38493e-05  Max(alpha.water) = 1.00001
MULES: Correcting alpha.water
MULES: Correcting alpha.water
Phase-1 volume fraction = 0.211728  Min(alpha.water) = -2.38493e-05  Max(alpha.water) = 1.00001
DICPCG:  Solving for p_rgh, Initial residual = 0.0063542, Final residual = 0.000233184, No Iterations 1
time step continuity errors : sum local = 0.00171369, global = 2.7377e-07, cumulative = 0.0021367
DICPCG:  Solving for p_rgh, Initial residual = 0.000253067, Final residual = 1.11835e-05, No Iterations 6
time step continuity errors : sum local = 8.1951e-05, global = -1.56012e-06, cumulative = 0.00213514
DICPCG:  Solving for p_rgh, Initial residual = 2.30265e-05, Final residual = 9.18143e-08, No Iterations 25
time step continuity errors : sum local = 6.72937e-07, global = 1.05069e-07, cumulative = 0.00213524
ExecutionTime = 245.68 s  ClockTime = 295 s

Courant Number mean: 0.0620752 max: 0.495921
Interface Courant Number mean: 0.00991927 max: 0.282012
deltaT = 0.0133333
Time = 7.87333

PIMPLE: iteration 1
smoothSolver:  Solving for alpha.water, Initial residual = 0.0014912, Final residual = 5.29621e-11, No Iterations 3
Phase-1 volume fraction = 0.211728  Min(alpha.water) = -2.238e-05  Max(alpha.water) = 1.00001
MULES: Correcting alpha.water
MULES: Correcting alpha.water
Phase-1 volume fraction = 0.211728  Min(alpha.water) = -2.238e-05  Max(alpha.water) = 1.00001
DICPCG:  Solving for p_rgh, Initial residual = 0.00621536, Final residual = 0.000246143, No Iterations 1
time step continuity errors : sum local = 0.00180544, global = 5.89797e-07, cumulative = 0.00213583
DICPCG:  Solving for p_rgh, Initial residual = 0.000265806, Final residual = 1.19033e-05, No Iterations 6
time step continuity errors : sum local = 8.70529e-05, global = -2.6239e-06, cumulative = 0.00213321
DICPCG:  Solving for p_rgh, Initial residual = 2.43648e-05, Final residual = 9.2944e-08, No Iterations 25
time step continuity errors : sum local = 6.79895e-07, global = 1.17497e-07, cumulative = 0.00213333
ExecutionTime = 245.75 s  ClockTime = 295 s

Courant Number mean: 0.0620341 max: 0.508959
Interface Courant Number mean: 0.00998929 max: 0.284429
deltaT = 0.0133333
Time = 7.88667

PIMPLE: iteration 1
smoothSolver:  Solving for alpha.water, Initial residual = 0.00147744, Final residual = 1.00779e-10, No Iterations 3
Phase-1 volume fraction = 0.211728  Min(alpha.water) = -2.13413e-05  Max(alpha.water) = 1.00001
MULES: Correcting alpha.water
MULES: Correcting alpha.water
Phase-1 volume fraction = 0.211728  Min(alpha.water) = -2.13413e-05  Max(alpha.water) = 1.00001
DICPCG:  Solving for p_rgh, Initial residual = 0.00614054, Final residual = 0.000261651, No Iterations 1
time step continuity errors : sum local = 0.00191575, global = 6.85377e-07, cumulative = 0.00213401
DICPCG:  Solving for p_rgh, Initial residual = 0.000281742, Final residual = 1.22257e-05, No Iterations 6
time step continuity errors : sum local = 8.92451e-05, global = -3.83525e-06, cumulative = 0.00213018
DICPCG:  Solving for p_rgh, Initial residual = 2.54946e-05, Final residual = 8.38146e-08, No Iterations 26
time step continuity errors : sum local = 6.11978e-07, global = 9.79734e-08, cumulative = 0.00213027
ExecutionTime = 245.82 s  ClockTime = 295 s

Courant Number mean: 0.0618879 max: 0.520934
Interface Courant Number mean: 0.00993663 max: 0.285807
deltaT = 0.0133333
Time = 7.9

PIMPLE: iteration 1
smoothSolver:  Solving for alpha.water, Initial residual = 0.00146322, Final residual = 1.80235e-10, No Iterations 3
Phase-1 volume fraction = 0.211728  Min(alpha.water) = -2.00721e-05  Max(alpha.water) = 1.00001
MULES: Correcting alpha.water
MULES: Correcting alpha.water
Phase-1 volume fraction = 0.211728  Min(alpha.water) = -2.00721e-05  Max(alpha.water) = 1.00001
DICPCG:  Solving for p_rgh, Initial residual = 0.00603983, Final residual = 0.00028091, No Iterations 1
time step continuity errors : sum local = 0.00205322, global = 7.63431e-07, cumulative = 0.00213104
DICPCG:  Solving for p_rgh, Initial residual = 0.000301634, Final residual = 1.24485e-05, No Iterations 6
time step continuity errors : sum local = 9.07259e-05, global = -4.84461e-06, cumulative = 0.00212619
DICPCG:  Solving for p_rgh, Initial residual = 2.67128e-05, Final residual = 9.40296e-08, No Iterations 26
time step continuity errors : sum local = 6.85476e-07, global = 1.0072e-07, cumulative = 0.00212629
ExecutionTime = 246.17 s  ClockTime = 296 s

Courant Number mean: 0.0616094 max: 0.528095
Interface Courant Number mean: 0.0098003 max: 0.243302
deltaT = 0.0125
Time = 7.9125

PIMPLE: iteration 1
smoothSolver:  Solving for alpha.water, Initial residual = 0.00135618, Final residual = 2.12104e-10, No Iterations 3
Phase-1 volume fraction = 0.211728  Min(alpha.water) = -1.87471e-05  Max(alpha.water) = 1.00001
MULES: Correcting alpha.water
MULES: Correcting alpha.water
Phase-1 volume fraction = 0.211728  Min(alpha.water) = -1.87471e-05  Max(alpha.water) = 1.00001
DICPCG:  Solving for p_rgh, Initial residual = 0.00568411, Final residual = 0.000274248, No Iterations 1
time step continuity errors : sum local = 0.00177621, global = 7.46523e-07, cumulative = 0.00212704
DICPCG:  Solving for p_rgh, Initial residual = 0.000292449, Final residual = 1.20122e-05, No Iterations 6
time step continuity errors : sum local = 7.7602e-05, global = -3.61805e-06, cumulative = 0.00212342
DICPCG:  Solving for p_rgh, Initial residual = 2.42409e-05, Final residual = 9.03807e-08, No Iterations 26
time step continuity errors : sum local = 5.84025e-07, global = 7.40384e-08, cumulative = 0.0021235
ExecutionTime = 247.29 s  ClockTime = 297 s

Courant Number mean: 0.0574182 max: 0.503567
Interface Courant Number mean: 0.00916303 max: 0.229657
deltaT = 0.0125
Time = 7.925

PIMPLE: iteration 1
smoothSolver:  Solving for alpha.water, Initial residual = 0.0013374, Final residual = 2.85044e-10, No Iterations 3
Phase-1 volume fraction = 0.211728  Min(alpha.water) = -1.73392e-05  Max(alpha.water) = 1.00001
MULES: Correcting alpha.water
MULES: Correcting alpha.water
Phase-1 volume fraction = 0.211728  Min(alpha.water) = -1.73392e-05  Max(alpha.water) = 1.00001
DICPCG:  Solving for p_rgh, Initial residual = 0.00573008, Final residual = 0.000281841, No Iterations 1
time step continuity errors : sum local = 0.00183045, global = 6.69641e-07, cumulative = 0.00212416
DICPCG:  Solving for p_rgh, Initial residual = 0.00030137, Final residual = 1.25399e-05, No Iterations 6
time step continuity errors : sum local = 8.12569e-05, global = -4.04475e-06, cumulative = 0.00212012
DICPCG:  Solving for p_rgh, Initial residual = 2.52482e-05, Final residual = 9.32865e-08, No Iterations 26
time step continuity errors : sum local = 6.04578e-07, global = 8.50935e-08, cumulative = 0.00212021
ExecutionTime = 247.38 s  ClockTime = 297 s

Courant Number mean: 0.0570096 max: 0.516339
Interface Courant Number mean: 0.00893162 max: 0.210223
deltaT = 0.0125
Time = 7.9375

PIMPLE: iteration 1
smoothSolver:  Solving for alpha.water, Initial residual = 0.00131371, Final residual = 3.52063e-10, No Iterations 3
Phase-1 volume fraction = 0.211728  Min(alpha.water) = -1.62462e-05  Max(alpha.water) = 1.00001
MULES: Correcting alpha.water
MULES: Correcting alpha.water
Phase-1 volume fraction = 0.211728  Min(alpha.water) = -1.62462e-05  Max(alpha.water) = 1.00001
DICPCG:  Solving for p_rgh, Initial residual = 0.00568083, Final residual = 0.000281187, No Iterations 1
time step continuity errors : sum local = 0.00183057, global = 7.61511e-07, cumulative = 0.00212097
DICPCG:  Solving for p_rgh, Initial residual = 0.000300933, Final residual = 1.24268e-05, No Iterations 6
time step continuity errors : sum local = 8.07493e-05, global = -3.3343e-06, cumulative = 0.00211763
DICPCG:  Solving for p_rgh, Initial residual = 2.52316e-05, Final residual = 8.47309e-08, No Iterations 27
time step continuity errors : sum local = 5.50635e-07, global = 8.32626e-08, cumulative = 0.00211772
ExecutionTime = 247.45 s  ClockTime = 297 s

Courant Number mean: 0.0564971 max: 0.527249
Interface Courant Number mean: 0.008487 max: 0.20492
deltaT = 0.0125
Time = 7.95

PIMPLE: iteration 1
smoothSolver:  Solving for alpha.water, Initial residual = 0.00128649, Final residual = 4.11185e-10, No Iterations 3
Phase-1 volume fraction = 0.211728  Min(alpha.water) = -1.5685e-05  Max(alpha.water) = 1.00001
MULES: Correcting alpha.water
MULES: Correcting alpha.water
Phase-1 volume fraction = 0.211728  Min(alpha.water) = -1.5685e-05  Max(alpha.water) = 1.00001
DICPCG:  Solving for p_rgh, Initial residual = 0.00565366, Final residual = 0.000280331, No Iterations 1
time step continuity errors : sum local = 0.00184109, global = 7.1029e-07, cumulative = 0.00211843
DICPCG:  Solving for p_rgh, Initial residual = 0.000300149, Final residual = 1.24516e-05, No Iterations 6
time step continuity errors : sum local = 8.16546e-05, global = -2.56827e-06, cumulative = 0.00211586
DICPCG:  Solving for p_rgh, Initial residual = 2.53155e-05, Final residual = 9.48931e-08, No Iterations 27
time step continuity errors : sum local = 6.2232e-07, global = 8.04162e-08, cumulative = 0.00211594
ExecutionTime = 247.52 s  ClockTime = 297 s

Courant Number mean: 0.0558851 max: 0.518142
Interface Courant Number mean: 0.00821912 max: 0.201579
deltaT = 0.0125
Time = 7.9625

PIMPLE: iteration 1
smoothSolver:  Solving for alpha.water, Initial residual = 0.00125673, Final residual = 4.64978e-10, No Iterations 3
Phase-1 volume fraction = 0.211728  Min(alpha.water) = -1.50068e-05  Max(alpha.water) = 1.00001
MULES: Correcting alpha.water
MULES: Correcting alpha.water
Phase-1 volume fraction = 0.211728  Min(alpha.water) = -1.50068e-05  Max(alpha.water) = 1.00001
DICPCG:  Solving for p_rgh, Initial residual = 0.00553349, Final residual = 0.000266614, No Iterations 1
time step continuity errors : sum local = 0.00178103, global = 6.93826e-07, cumulative = 0.00211663
DICPCG:  Solving for p_rgh, Initial residual = 0.000285836, Final residual = 1.20072e-05, No Iterations 6
time step continuity errors : sum local = 8.01059e-05, global = -2.02398e-06, cumulative = 0.00211461
DICPCG:  Solving for p_rgh, Initial residual = 2.44974e-05, Final residual = 9.51875e-08, No Iterations 27
time step continuity errors : sum local = 6.35032e-07, global = 8.26349e-08, cumulative = 0.00211469
ExecutionTime = 247.59 s  ClockTime = 297 s

Courant Number mean: 0.0552319 max: 0.494192
Interface Courant Number mean: 0.00788905 max: 0.18867
deltaT = 0.0125
Time = 7.975

PIMPLE: iteration 1
smoothSolver:  Solving for alpha.water, Initial residual = 0.00122557, Final residual = 5.14908e-10, No Iterations 3
Phase-1 volume fraction = 0.211728  Min(alpha.water) = -1.42361e-05  Max(alpha.water) = 1.00001
MULES: Correcting alpha.water
MULES: Correcting alpha.water
Phase-1 volume fraction = 0.211728  Min(alpha.water) = -1.42361e-05  Max(alpha.water) = 1.00001
DICPCG:  Solving for p_rgh, Initial residual = 0.00552155, Final residual = 0.000245166, No Iterations 1
time step continuity errors : sum local = 0.00168729, global = 6.8372e-07, cumulative = 0.00211537
DICPCG:  Solving for p_rgh, Initial residual = 0.000262974, Final residual = 1.08724e-05, No Iterations 6
time step continuity errors : sum local = 7.47273e-05, global = -2.08739e-06, cumulative = 0.00211329
DICPCG:  Solving for p_rgh, Initial residual = 2.29069e-05, Final residual = 8.33853e-08, No Iterations 27
time step continuity errors : sum local = 5.73094e-07, global = 9.43959e-08, cumulative = 0.00211338
ExecutionTime = 247.66 s  ClockTime = 297 s

Courant Number mean: 0.0545759 max: 0.48646
Interface Courant Number mean: 0.00759163 max: 0.182009
deltaT = 0.0125
Time = 7.9875

PIMPLE: iteration 1
smoothSolver:  Solving for alpha.water, Initial residual = 0.00119312, Final residual = 5.77085e-10, No Iterations 3
Phase-1 volume fraction = 0.211728  Min(alpha.water) = -1.35674e-05  Max(alpha.water) = 1.00001
MULES: Correcting alpha.water
MULES: Correcting alpha.water
Phase-1 volume fraction = 0.211728  Min(alpha.water) = -1.35674e-05  Max(alpha.water) = 1.00001
DICPCG:  Solving for p_rgh, Initial residual = 0.00542555, Final residual = 0.000230338, No Iterations 1
time step continuity errors : sum local = 0.00161611, global = 6.95578e-07, cumulative = 0.00211408
DICPCG:  Solving for p_rgh, Initial residual = 0.00024725, Final residual = 1.03416e-05, No Iterations 6
time step continuity errors : sum local = 7.24681e-05, global = -2.18659e-06, cumulative = 0.00211189
DICPCG:  Solving for p_rgh, Initial residual = 2.20183e-05, Final residual = 7.90221e-08, No Iterations 27
time step continuity errors : sum local = 5.53691e-07, global = 1.00252e-07, cumulative = 0.00211199
ExecutionTime = 247.74 s  ClockTime = 297 s

Courant Number mean: 0.0539211 max: 0.473179
Interface Courant Number mean: 0.00728805 max: 0.178122
deltaT = 0.0125
Time = 8

PIMPLE: iteration 1
smoothSolver:  Solving for alpha.water, Initial residual = 0.00115944, Final residual = 6.47851e-10, No Iterations 3
Phase-1 volume fraction = 0.211728  Min(alpha.water) = -1.27176e-05  Max(alpha.water) = 1.00001
MULES: Correcting alpha.water
MULES: Correcting alpha.water
Phase-1 volume fraction = 0.211728  Min(alpha.water) = -1.27176e-05  Max(alpha.water) = 1.00001
DICPCG:  Solving for p_rgh, Initial residual = 0.00545024, Final residual = 0.000221472, No Iterations 1
time step continuity errors : sum local = 0.0015883, global = 6.8614e-07, cumulative = 0.00211268
DICPCG:  Solving for p_rgh, Initial residual = 0.000237543, Final residual = 1.03088e-05, No Iterations 6
time step continuity errors : sum local = 7.3842e-05, global = -2.41642e-06, cumulative = 0.00211026
DICPCG:  Solving for p_rgh, Initial residual = 2.17098e-05, Final residual = 9.54308e-08, No Iterations 26
time step continuity errors : sum local = 6.83472e-07, global = 1.29723e-07, cumulative = 0.00211039
ExecutionTime = 247.88 s  ClockTime = 297 s

End

Finalising parallel run
