/*---------------------------------------------------------------------------*\
| =========                 |                                                 |
| \\      /  F ield         | OpenFOAM: The Open Source CFD Toolbox           |
|  \\    /   O peration     | Version:  2206                                  |
|   \\  /    A nd           | Website:  www.openfoam.com                      |
|    \\/     M anipulation  |                                                 |
\*---------------------------------------------------------------------------*/
Build  : _8993af73-20221106 OPENFOAM=2206 patch=221104 version=2206
Arch   : "LSB;label=32;scalar=64"
Exec   : simpleFoam
Date   : Aug 24 2023
Time   : 03:19:12
Host   : dexcs-VirtualBox
PID    : 142350
I/O    : uncollated
Case   : /home/dexcs/Desktop/run/200_Ahmed-body/001_Ahmed-body
nProcs : 1
trapFpe: Floating point exception trapping enabled (FOAM_SIGFPE).
fileModificationChecking : Monitoring run-time modified files using timeStampMaster (fileModificationSkew 5, maxFileModificationPolls 20)
allowSystemOperations : Allowing user-supplied system call operations

// * * * * * * * * * * * * * * * * * * * * * * * * * * * * * * * * * * * * * //
Create time

Create mesh for time = 0


SIMPLE: no convergence criteria found. Calculations will run for 1000 steps.

Reading field p

--> FOAM Warning : 
    From void Foam::polyBoundaryMesh::calcGroupIDs() const
    in file meshes/polyMesh/polyBoundaryMesh/polyBoundaryMesh.C at line 100
    Removed group 'symmetry' which clashes with patch 6 of the same name.
Reading field U

Reading/calculating face flux field phi

Selecting incompressible transport model Newtonian
Selecting turbulence model type RAS
Selecting RAS turbulence model kOmegaSST
Selecting patchDistMethod meshWave
RAS
{
    RASModel        kOmegaSST;
    turbulence      on;
    printCoeffs     on;
    alphaK1         0.85;
    alphaK2         1;
    alphaOmega1     0.5;
    alphaOmega2     0.856;
    gamma1          0.555556;
    gamma2          0.44;
    beta1           0.075;
    beta2           0.0828;
    betaStar        0.09;
    a1              0.31;
    b1              1;
    c1              10;
    F3              false;
    decayControl    false;
    kInf            0;
    omegaInf        0;
}

No MRF models present

No finite volume options present

Starting time loop

forceCoeffs forceCoeffs1:
    rho: rhoInf
    Freestream density (rhoInf) set to 1.225
    Not including porosity effects
    magUInf: 40
    lRef   : 0.47
    Aref   : 0.0575
    rhoInf : 1.225
    Selecting all coefficients
    - Drag force: Cd
    - Drag force front: Cd(f)
    - Drag force rear: Cd(r)
    - Lift force: Cl
    - Lift force front: Cl(f)
    - Lift force rear: Cl(r)
    - Pitch moment: CmPitch
    - Roll moment: CmRoll
    - Yaw moment: CmYaw
    - Side force: Cs
    - Side force front: Cs(f)
    - Side force rear: Cs(r)


Time = 1

smoothSolver:  Solving for Ux, Initial residual = 1, Final residual = 0.0588452, No Iterations 4
smoothSolver:  Solving for Uy, Initial residual = 1, Final residual = 0.0784206, No Iterations 4
smoothSolver:  Solving for Uz, Initial residual = 1, Final residual = 0.0624672, No Iterations 6
GAMG:  Solving for p, Initial residual = 1, Final residual = 0.00996406, No Iterations 9
time step continuity errors : sum local = 0.00224712, global = 6.46472e-05, cumulative = 6.46472e-05
smoothSolver:  Solving for omega, Initial residual = 0.00367992, Final residual = 9.42803e-05, No Iterations 2
smoothSolver:  Solving for k, Initial residual = 1, Final residual = 0.0349294, No Iterations 1
ExecutionTime = 8.31 s  ClockTime = 9 s

forceCoeffs forceCoeffs1 write:
    Coefficient	Total	Pressure	Viscous	Internal
    Cd:	69.5164	69.5002	0.0162278	0
    Cd(f):	42.5162	42.5081	0.00807189	0
    Cd(r):	27.0003	26.9921	0.00815589	0
    Cl:	17.3085	17.3086	-1.93807e-05	0
    Cl(f):	56.5573	56.5507	0.0065773	0
    Cl(r):	-39.2487	-39.2421	-0.00659668	0
    CmPitch:	47.903	47.8964	0.00658699	0
    CmRoll:	7.75796	7.758	-4.20001e-05	0
    CmYaw:	20.5046	20.5102	-0.00561378	0
    Cs:	-10.908	-10.9082	0.000166123	0
    Cs(f):	15.0506	15.0561	-0.00553072	0
    Cs(r):	-25.9586	-25.9643	0.00569684	0

    writing force and moment coefficient files.

Time = 2

smoothSolver:  Solving for Ux, Initial residual = 0.270193, Final residual = 0.0134936, No Iterations 3
smoothSolver:  Solving for Uy, Initial residual = 0.337719, Final residual = 0.0137096, No Iterations 3
smoothSolver:  Solving for Uz, Initial residual = 0.314858, Final residual = 0.0139304, No Iterations 3
GAMG:  Solving for p, Initial residual = 0.366755, Final residual = 0.00222269, No Iterations 6
time step continuity errors : sum local = 0.0486909, global = 0.000212946, cumulative = 0.000277594
smoothSolver:  Solving for omega, Initial residual = 0.00251616, Final residual = 9.57663e-05, No Iterations 2
smoothSolver:  Solving for k, Initial residual = 0.286464, Final residual = 0.00949635, No Iterations 1
ExecutionTime = 12.71 s  ClockTime = 13 s

forceCoeffs forceCoeffs1 write:
    Coefficient	Total	Pressure	Viscous	Internal
    Cd:	3.72732	3.71724	0.0100778	0
    Cd(f):	1.13414	1.12955	0.0045936	0
    Cd(r):	2.59318	2.58769	0.00548424	0
    Cl:	1.68494	1.68566	-0.000719186	0
    Cl(f):	4.14264	4.13877	0.00386788	0
    Cl(r):	-2.4577	-2.45311	-0.00458706	0
    CmPitch:	3.30017	3.29594	0.00422747	0
    CmRoll:	-0.729518	-0.729072	-0.000445317	0
    CmYaw:	-4.07785	-4.07277	-0.00507984	0
    Cs:	2.48902	2.48792	0.00109139	0
    Cs(f):	-2.83334	-2.82881	-0.00453415	0
    Cs(r):	5.32236	5.31673	0.00562554	0

    writing force and moment coefficient files.

Time = 3

smoothSolver:  Solving for Ux, Initial residual = 0.0703166, Final residual = 0.00311839, No Iterations 3
smoothSolver:  Solving for Uy, Initial residual = 0.106299, Final residual = 0.00445209, No Iterations 3
smoothSolver:  Solving for Uz, Initial residual = 0.107895, Final residual = 0.00501604, No Iterations 3
GAMG:  Solving for p, Initial residual = 0.291369, Final residual = 0.00245905, No Iterations 5
time step continuity errors : sum local = 0.0180173, global = 3.9679e-05, cumulative = 0.000317273
smoothSolver:  Solving for omega, Initial residual = 0.0036571, Final residual = 0.000114407, No Iterations 2
smoothSolver:  Solving for k, Initial residual = 0.147414, Final residual = 0.00494848, No Iterations 1
ExecutionTime = 16.98 s  ClockTime = 17 s

forceCoeffs forceCoeffs1 write:
    Coefficient	Total	Pressure	Viscous	Internal
    Cd:	1.07776	1.06656	0.011197	0
    Cd(f):	0.0318391	0.0266609	0.00517817	0
    Cd(r):	1.04592	1.0399	0.00601884	0
    Cl:	0.964545	0.965263	-0.000718206	0
    Cl(f):	1.26572	1.26142	0.00430372	0
    Cl(r):	-0.301179	-0.296158	-0.00502192	0
    CmPitch:	0.783452	0.778789	0.00466282	0
    CmRoll:	-0.50704	-0.50662	-0.000420332	0
    CmYaw:	-2.52233	-2.51746	-0.00487517	0
    Cs:	1.77054	1.76956	0.000982967	0
    Cs(f):	-1.63706	-1.63268	-0.00438368	0
    Cs(r):	3.4076	3.40224	0.00536665	0

    writing force and moment coefficient files.

Time = 4

smoothSolver:  Solving for Ux, Initial residual = 0.0366441, Final residual = 0.00155156, No Iterations 3
smoothSolver:  Solving for Uy, Initial residual = 0.0534377, Final residual = 0.00205127, No Iterations 3
smoothSolver:  Solving for Uz, Initial residual = 0.0590783, Final residual = 0.00230874, No Iterations 3
GAMG:  Solving for p, Initial residual = 0.185023, Final residual = 0.000994268, No Iterations 5
time step continuity errors : sum local = 0.00726333, global = -0.000284395, cumulative = 3.28778e-05
smoothSolver:  Solving for omega, Initial residual = 0.00252219, Final residual = 8.71192e-05, No Iterations 2
smoothSolver:  Solving for k, Initial residual = 0.0957036, Final residual = 0.00336256, No Iterations 1
ExecutionTime = 21.04 s  ClockTime = 21 s

forceCoeffs forceCoeffs1 write:
    Coefficient	Total	Pressure	Viscous	Internal
    Cd:	0.1186	0.106155	0.0124446	0
    Cd(f):	-0.481357	-0.487183	0.00582677	0
    Cd(r):	0.599957	0.593339	0.00661788	0
    Cl:	0.381226	0.381872	-0.000645146	0
    Cl(f):	0.0739457	0.0691103	0.00483539	0
    Cl(r):	0.307281	0.312761	-0.00548054	0
    CmPitch:	-0.116667	-0.121825	0.00515797	0
    CmRoll:	-0.540657	-0.540261	-0.000395552	0
    CmYaw:	-2.34946	-2.34455	-0.00490984	0
    Cs:	1.52383	1.52289	0.000941574	0
    Cs(f):	-1.58754	-1.5831	-0.00443905	0
    Cs(r):	3.11137	3.10599	0.00538063	0

    writing force and moment coefficient files.

Time = 5

smoothSolver:  Solving for Ux, Initial residual = 0.0193549, Final residual = 0.000929298, No Iterations 3
smoothSolver:  Solving for Uy, Initial residual = 0.0268346, Final residual = 0.00107692, No Iterations 3
smoothSolver:  Solving for Uz, Initial residual = 0.0282347, Final residual = 0.00125342, No Iterations 3
GAMG:  Solving for p, Initial residual = 0.194245, Final residual = 0.00153223, No Iterations 4
time step continuity errors : sum local = 0.00823737, global = -0.000514984, cumulative = -0.000482106
smoothSolver:  Solving for omega, Initial residual = 0.0021142, Final residual = 7.13899e-05, No Iterations 2
smoothSolver:  Solving for k, Initial residual = 0.0689476, Final residual = 0.00260325, No Iterations 1
ExecutionTime = 25.18 s  ClockTime = 26 s

forceCoeffs forceCoeffs1 write:
    Coefficient	Total	Pressure	Viscous	Internal
    Cd:	0.36238	0.34895	0.0134303	0
    Cd(f):	-0.266139	-0.272471	0.006332	0
    Cd(r):	0.628519	0.621421	0.00709828	0
    Cl:	0.527237	0.52775	-0.000512733	0
    Cl(f):	0.416344	0.411019	0.00532573	0
    Cl(r):	0.110893	0.116731	-0.00583847	0
    CmPitch:	0.152726	0.147144	0.0055821	0
    CmRoll:	-0.447329	-0.446946	-0.000383143	0
    CmYaw:	-2.10171	-2.09658	-0.00513529	0
    Cs:	1.34985	1.34888	0.000969243	0
    Cs(f):	-1.42679	-1.42214	-0.00465067	0
    Cs(r):	2.77664	2.77102	0.00561991	0

    writing force and moment coefficient files.

Time = 6

smoothSolver:  Solving for Ux, Initial residual = 0.012969, Final residual = 0.000631925, No Iterations 3
smoothSolver:  Solving for Uy, Initial residual = 0.0174013, Final residual = 0.000682938, No Iterations 3
smoothSolver:  Solving for Uz, Initial residual = 0.0178915, Final residual = 0.00082105, No Iterations 3
GAMG:  Solving for p, Initial residual = 0.18654, Final residual = 0.00175913, No Iterations 4
time step continuity errors : sum local = 0.00638077, global = -0.000398198, cumulative = -0.000880304
smoothSolver:  Solving for omega, Initial residual = 0.00185402, Final residual = 6.08128e-05, No Iterations 2
smoothSolver:  Solving for k, Initial residual = 0.0525026, Final residual = 0.00210532, No Iterations 1
ExecutionTime = 29.8 s  ClockTime = 30 s

forceCoeffs forceCoeffs1 write:
    Coefficient	Total	Pressure	Viscous	Internal
    Cd:	0.651177	0.636471	0.0147063	0
    Cd(f):	-0.0271027	-0.0340747	0.00697194	0
    Cd(r):	0.67828	0.670546	0.00773436	0
    Cl:	0.647927	0.648317	-0.000390411	0
    Cl(f):	0.750764	0.744814	0.00595043	0
    Cl(r):	-0.102837	-0.0964962	-0.00634084	0
    CmPitch:	0.426801	0.420655	0.00614564	0
    CmRoll:	-0.352691	-0.35231	-0.000381213	0
    CmYaw:	-1.82305	-1.81745	-0.00559409	0
    Cs:	1.16532	1.16428	0.00103543	0
    Cs(f):	-1.24039	-1.23531	-0.00507637	0
    Cs(r):	2.40571	2.3996	0.0061118	0

    writing force and moment coefficient files.

Time = 7

smoothSolver:  Solving for Ux, Initial residual = 0.0109, Final residual = 0.000531019, No Iterations 3
smoothSolver:  Solving for Uy, Initial residual = 0.0143141, Final residual = 0.000559746, No Iterations 3
smoothSolver:  Solving for Uz, Initial residual = 0.0147213, Final residual = 0.000670537, No Iterations 3
GAMG:  Solving for p, Initial residual = 0.178265, Final residual = 0.00137459, No Iterations 4
time step continuity errors : sum local = 0.00327564, global = -0.00017579, cumulative = -0.00105609
smoothSolver:  Solving for omega, Initial residual = 0.00170958, Final residual = 5.36519e-05, No Iterations 2
smoothSolver:  Solving for k, Initial residual = 0.0416791, Final residual = 0.00177566, No Iterations 1
ExecutionTime = 33.58 s  ClockTime = 34 s

forceCoeffs forceCoeffs1 write:
    Coefficient	Total	Pressure	Viscous	Internal
    Cd:	0.690646	0.674822	0.0158231	0
    Cd(f):	-0.0234341	-0.0309548	0.00752071	0
    Cd(r):	0.71408	0.705777	0.00830241	0
    Cl:	0.660493	0.660755	-0.000262328	0
    Cl(f):	0.832456	0.825923	0.00653337	0
    Cl(r):	-0.171964	-0.165168	-0.0067957	0
    CmPitch:	0.50221	0.495545	0.00666454	0
    CmRoll:	-0.368757	-0.368366	-0.000390852	0
    CmYaw:	-1.86603	-1.85992	-0.00611419	0
    Cs:	1.21113	1.21	0.00113255	0
    Cs(f):	-1.26047	-1.25492	-0.00554791	0
    Cs(r):	2.47159	2.46491	0.00668046	0

    writing force and moment coefficient files.

Time = 8

smoothSolver:  Solving for Ux, Initial residual = 0.00903901, Final residual = 0.000448883, No Iterations 3
smoothSolver:  Solving for Uy, Initial residual = 0.0122649, Final residual = 0.000484681, No Iterations 3
smoothSolver:  Solving for Uz, Initial residual = 0.0124151, Final residual = 0.000565495, No Iterations 3
GAMG:  Solving for p, Initial residual = 0.149173, Final residual = 0.00115514, No Iterations 4
time step continuity errors : sum local = 0.00213092, global = 6.82149e-05, cumulative = -0.000987879
smoothSolver:  Solving for omega, Initial residual = 0.00157238, Final residual = 4.64154e-05, No Iterations 2
smoothSolver:  Solving for k, Initial residual = 0.0340949, Final residual = 0.0015382, No Iterations 1
ExecutionTime = 37.97 s  ClockTime = 38 s

forceCoeffs forceCoeffs1 write:
    Coefficient	Total	Pressure	Viscous	Internal
    Cd:	0.686348	0.669474	0.0168732	0
    Cd(f):	-0.0514625	-0.059495	0.00803249	0
    Cd(r):	0.73781	0.728969	0.00884072	0
    Cl:	0.663462	0.663607	-0.000144563	0
    Cl(f):	0.861267	0.854181	0.007086	0
    Cl(r):	-0.197805	-0.190574	-0.00723056	0
    CmPitch:	0.529536	0.522378	0.00715828	0
    CmRoll:	-0.394636	-0.394232	-0.000404113	0
    CmYaw:	-1.9511	-1.94446	-0.00663698	0
    Cs:	1.27941	1.27819	0.00122032	0
    Cs(f):	-1.31139	-1.30537	-0.00602682	0
    Cs(r):	2.5908	2.58355	0.00724714	0

    writing force and moment coefficient files.

Time = 9

smoothSolver:  Solving for Ux, Initial residual = 0.00793578, Final residual = 0.000396449, No Iterations 3
smoothSolver:  Solving for Uy, Initial residual = 0.0108874, Final residual = 0.000431773, No Iterations 3
smoothSolver:  Solving for Uz, Initial residual = 0.0108989, Final residual = 0.000493536, No Iterations 3
GAMG:  Solving for p, Initial residual = 0.114054, Final residual = 0.00104111, No Iterations 4
time step continuity errors : sum local = 0.00169339, global = 0.000205254, cumulative = -0.000782625
smoothSolver:  Solving for omega, Initial residual = 0.0014567, Final residual = 4.13074e-05, No Iterations 2
smoothSolver:  Solving for k, Initial residual = 0.0284804, Final residual = 0.0013512, No Iterations 1
ExecutionTime = 41.34 s  ClockTime = 42 s

forceCoeffs forceCoeffs1 write:
    Coefficient	Total	Pressure	Viscous	Internal
    Cd:	0.660749	0.642879	0.0178703	0
    Cd(f):	-0.09769	-0.106205	0.00851474	0
    Cd(r):	0.758439	0.749083	0.00935554	0
    Cl:	0.652503	0.652546	-4.28917e-05	0
    Cl(f):	0.849623	0.842009	0.00761401	0
    Cl(r):	-0.19712	-0.189463	-0.0076569	0
    CmPitch:	0.523371	0.515736	0.00763546	0
    CmRoll:	-0.428064	-0.427644	-0.0004204	0
    CmYaw:	-2.05439	-2.04724	-0.00714686	0
    Cs:	1.35845	1.35714	0.00130988	0
    Cs(f):	-1.37517	-1.36868	-0.00649192	0
    Cs(r):	2.73362	2.72581	0.0078018	0

    writing force and moment coefficient files.

Time = 10

smoothSolver:  Solving for Ux, Initial residual = 0.00709461, Final residual = 0.000356963, No Iterations 3
smoothSolver:  Solving for Uy, Initial residual = 0.00991126, Final residual = 0.000392162, No Iterations 3
smoothSolver:  Solving for Uz, Initial residual = 0.00978176, Final residual = 0.000441125, No Iterations 3
GAMG:  Solving for p, Initial residual = 0.0866933, Final residual = 0.000753665, No Iterations 4
time step continuity errors : sum local = 0.00117729, global = 0.000206993, cumulative = -0.000575632
smoothSolver:  Solving for omega, Initial residual = 0.00141065, Final residual = 3.7933e-05, No Iterations 2
smoothSolver:  Solving for k, Initial residual = 0.024234, Final residual = 0.00120343, No Iterations 1
ExecutionTime = 45.61 s  ClockTime = 46 s

forceCoeffs forceCoeffs1 write:
    Coefficient	Total	Pressure	Viscous	Internal
    Cd:	0.640367	0.621521	0.0188456	0
    Cd(f):	-0.115833	-0.124819	0.00898598	0
    Cd(r):	0.7562	0.74634	0.0098596	0
    Cl:	0.660198	0.660152	4.57794e-05	0
    Cl(f):	0.844423	0.836297	0.008126	0
    Cl(r):	-0.184225	-0.176144	-0.00808022	0
    CmPitch:	0.514324	0.506221	0.00810311	0
    CmRoll:	-0.436016	-0.435579	-0.000436811	0
    CmYaw:	-2.09147	-2.08383	-0.00764026	0
    Cs:	1.38289	1.3815	0.00139337	0
    Cs(f):	-1.40003	-1.39308	-0.00694358	0
    Cs(r):	2.78292	2.77458	0.00833694	0

    writing force and moment coefficient files.

Time = 11

smoothSolver:  Solving for Ux, Initial residual = 0.00664992, Final residual = 0.000334933, No Iterations 3
smoothSolver:  Solving for Uy, Initial residual = 0.0093652, Final residual = 0.000367534, No Iterations 3
smoothSolver:  Solving for Uz, Initial residual = 0.00920608, Final residual = 0.000412161, No Iterations 3
GAMG:  Solving for p, Initial residual = 0.0669165, Final residual = 0.000629484, No Iterations 4
time step continuity errors : sum local = 0.00097427, global = 0.000175219, cumulative = -0.000400413
smoothSolver:  Solving for omega, Initial residual = 0.00137463, Final residual = 3.55356e-05, No Iterations 2
smoothSolver:  Solving for k, Initial residual = 0.0210015, Final residual = 0.00109032, No Iterations 1
ExecutionTime = 49.86 s  ClockTime = 50 s

forceCoeffs forceCoeffs1 write:
    Coefficient	Total	Pressure	Viscous	Internal
    Cd:	0.622725	0.602908	0.0198176	0
    Cd(f):	-0.12443	-0.133885	0.00945504	0
    Cd(r):	0.747155	0.736792	0.0103625	0
    Cl:	0.669112	0.668981	0.000131038	0
    Cl(f):	0.845569	0.83693	0.00863844	0
    Cl(r):	-0.176457	-0.16795	-0.0085074	0
    CmPitch:	0.511013	0.50244	0.00857292	0
    CmRoll:	-0.435792	-0.435338	-0.000453748	0
    CmYaw:	-2.09854	-2.09042	-0.00812707	0
    Cs:	1.38512	1.38364	0.00148127	0
    Cs(f):	-1.40598	-1.39859	-0.00738644	0
    Cs(r):	2.7911	2.78224	0.0088677	0

    writing force and moment coefficient files.

Time = 12

smoothSolver:  Solving for Ux, Initial residual = 0.0063126, Final residual = 0.0003168, No Iterations 3
smoothSolver:  Solving for Uy, Initial residual = 0.00904084, Final residual = 0.000354502, No Iterations 3
smoothSolver:  Solving for Uz, Initial residual = 0.0088141, Final residual = 0.000391188, No Iterations 3
GAMG:  Solving for p, Initial residual = 0.0545891, Final residual = 0.000358968, No Iterations 5
time step continuity errors : sum local = 0.000533933, global = 8.85206e-05, cumulative = -0.000311893
smoothSolver:  Solving for omega, Initial residual = 0.00132409, Final residual = 3.3314e-05, No Iterations 2
smoothSolver:  Solving for k, Initial residual = 0.0184055, Final residual = 0.000996689, No Iterations 1
ExecutionTime = 53.86 s  ClockTime = 54 s

forceCoeffs forceCoeffs1 write:
    Coefficient	Total	Pressure	Viscous	Internal
    Cd:	0.611986	0.5912	0.0207855	0
    Cd(f):	-0.123536	-0.133457	0.0099214	0
    Cd(r):	0.735522	0.724658	0.0108641	0
    Cl:	0.688453	0.688241	0.000211637	0
    Cl(f):	0.866406	0.857257	0.00914868	0
    Cl(r):	-0.177953	-0.169016	-0.00893704	0
    CmPitch:	0.522179	0.513137	0.00904286	0
    CmRoll:	-0.429529	-0.429058	-0.000471328	0
    CmYaw:	-2.09088	-2.08228	-0.00859924	0
    Cs:	1.37661	1.37503	0.00157056	0
    Cs(f):	-1.40257	-1.39476	-0.00781396	0
    Cs(r):	2.77918	2.7698	0.00938452	0

    writing force and moment coefficient files.

Time = 13

smoothSolver:  Solving for Ux, Initial residual = 0.00605229, Final residual = 0.000302092, No Iterations 3
smoothSolver:  Solving for Uy, Initial residual = 0.00880281, Final residual = 0.000344245, No Iterations 3
smoothSolver:  Solving for Uz, Initial residual = 0.00850999, Final residual = 0.000376081, No Iterations 3
GAMG:  Solving for p, Initial residual = 0.0462767, Final residual = 0.000418468, No Iterations 4
time step continuity errors : sum local = 0.000599535, global = 9.02329e-06, cumulative = -0.000302869
smoothSolver:  Solving for omega, Initial residual = 0.00127695, Final residual = 3.15687e-05, No Iterations 2
smoothSolver:  Solving for k, Initial residual = 0.0162977, Final residual = 0.00091741, No Iterations 1
ExecutionTime = 58.25 s  ClockTime = 59 s

forceCoeffs forceCoeffs1 write:
    Coefficient	Total	Pressure	Viscous	Internal
    Cd:	0.598731	0.576974	0.0217568	0
    Cd(f):	-0.131081	-0.141471	0.0103898	0
    Cd(r):	0.729813	0.718446	0.011367	0
    Cl:	0.686297	0.686007	0.000289085	0
    Cl(f):	0.865036	0.85538	0.009656	0
    Cl(r):	-0.17874	-0.169373	-0.00936692	0
    CmPitch:	0.521888	0.512377	0.00951146	0
    CmRoll:	-0.430447	-0.429958	-0.000488561	0
    CmYaw:	-2.08809	-2.07903	-0.00906087	0
    Cs:	1.3776	1.37594	0.00166076	0
    Cs(f):	-1.39929	-1.39106	-0.00823049	0
    Cs(r):	2.77689	2.767	0.00989124	0

    writing force and moment coefficient files.

Time = 14

smoothSolver:  Solving for Ux, Initial residual = 0.00588587, Final residual = 0.000291386, No Iterations 3
smoothSolver:  Solving for Uy, Initial residual = 0.00858643, Final residual = 0.000335312, No Iterations 3
smoothSolver:  Solving for Uz, Initial residual = 0.00825456, Final residual = 0.000361673, No Iterations 3
GAMG:  Solving for p, Initial residual = 0.0410789, Final residual = 0.000277872, No Iterations 5
time step continuity errors : sum local = 0.00038687, global = -3.76439e-05, cumulative = -0.000340513
smoothSolver:  Solving for omega, Initial residual = 0.00122862, Final residual = 3.00544e-05, No Iterations 2
smoothSolver:  Solving for k, Initial residual = 0.0145424, Final residual = 0.000847939, No Iterations 1
ExecutionTime = 62.47 s  ClockTime = 63 s

forceCoeffs forceCoeffs1 write:
    Coefficient	Total	Pressure	Viscous	Internal
    Cd:	0.596494	0.57379	0.0227042	0
    Cd(f):	-0.127996	-0.138844	0.0108485	0
    Cd(r):	0.72449	0.712634	0.0118557	0
    Cl:	0.696453	0.696088	0.000365864	0
    Cl(f):	0.884896	0.874741	0.0101551	0
    Cl(r):	-0.188442	-0.178653	-0.00978923	0
    CmPitch:	0.536669	0.526697	0.00997216	0
    CmRoll:	-0.426243	-0.425739	-0.00050358	0
    CmYaw:	-2.07769	-2.06818	-0.00950634	0
    Cs:	1.37196	1.37021	0.0017463	0
    Cs(f):	-1.39171	-1.38308	-0.00863319	0
    Cs(r):	2.76367	2.75329	0.0103795	0

    writing force and moment coefficient files.

Time = 15

smoothSolver:  Solving for Ux, Initial residual = 0.00580172, Final residual = 0.000284544, No Iterations 3
smoothSolver:  Solving for Uy, Initial residual = 0.00838652, Final residual = 0.000330231, No Iterations 3
smoothSolver:  Solving for Uz, Initial residual = 0.00802134, Final residual = 0.000350468, No Iterations 3
GAMG:  Solving for p, Initial residual = 0.0389318, Final residual = 0.000265276, No Iterations 5
time step continuity errors : sum local = 0.000341875, global = -5.1538e-05, cumulative = -0.000392051
smoothSolver:  Solving for omega, Initial residual = 0.00117885, Final residual = 2.87518e-05, No Iterations 2
smoothSolver:  Solving for k, Initial residual = 0.013072, Final residual = 0.00078706, No Iterations 1
ExecutionTime = 66.29 s  ClockTime = 67 s

forceCoeffs forceCoeffs1 write:
    Coefficient	Total	Pressure	Viscous	Internal
    Cd:	0.586253	0.562632	0.0236206	0
    Cd(f):	-0.133951	-0.145244	0.011293	0
    Cd(r):	0.720204	0.707876	0.0123276	0
    Cl:	0.688633	0.688193	0.000439431	0
    Cl(f):	0.873965	0.863327	0.0106385	0
    Cl(r):	-0.185333	-0.175134	-0.0101991	0
    CmPitch:	0.529649	0.51923	0.0104188	0
    CmRoll:	-0.427078	-0.42656	-0.000517322	0
    CmYaw:	-2.07263	-2.06269	-0.00993058	0
    Cs:	1.3708	1.36897	0.00182898	0
    Cs(f):	-1.38723	-1.37821	-0.00901609	0
    Cs(r):	2.75803	2.74718	0.0108451	0

    writing force and moment coefficient files.

Time = 16

smoothSolver:  Solving for Ux, Initial residual = 0.00566023, Final residual = 0.000275475, No Iterations 3
smoothSolver:  Solving for Uy, Initial residual = 0.00818877, Final residual = 0.000324175, No Iterations 3
smoothSolver:  Solving for Uz, Initial residual = 0.00781097, Final residual = 0.000342059, No Iterations 3
GAMG:  Solving for p, Initial residual = 0.0367938, Final residual = 0.000238733, No Iterations 5
time step continuity errors : sum local = 0.000302281, global = -4.27524e-05, cumulative = -0.000434804
smoothSolver:  Solving for omega, Initial residual = 0.00113589, Final residual = 2.75919e-05, No Iterations 2
smoothSolver:  Solving for k, Initial residual = 0.0118189, Final residual = 0.000731823, No Iterations 1
ExecutionTime = 69.93 s  ClockTime = 70 s

forceCoeffs forceCoeffs1 write:
    Coefficient	Total	Pressure	Viscous	Internal
    Cd:	0.576484	0.551996	0.0244877	0
    Cd(f):	-0.138322	-0.150037	0.0117145	0
    Cd(r):	0.714806	0.702033	0.0127732	0
    Cl:	0.69096	0.69045	0.000510155	0
    Cl(f):	0.874597	0.8635	0.0110971	0
    Cl(r):	-0.183637	-0.17305	-0.0105869	0
    CmPitch:	0.529117	0.518275	0.010842	0
    CmRoll:	-0.426564	-0.426035	-0.000529331	0
    CmYaw:	-2.07167	-2.06134	-0.0103297	0
    Cs:	1.3708	1.36889	0.00190694	0
    Cs(f):	-1.38627	-1.3769	-0.00937619	0
    Cs(r):	2.75707	2.74579	0.0112831	0

    writing force and moment coefficient files.

Time = 17

smoothSolver:  Solving for Ux, Initial residual = 0.00549985, Final residual = 0.000266888, No Iterations 3
smoothSolver:  Solving for Uy, Initial residual = 0.00800446, Final residual = 0.000318973, No Iterations 3
smoothSolver:  Solving for Uz, Initial residual = 0.00760401, Final residual = 0.000334915, No Iterations 3
GAMG:  Solving for p, Initial residual = 0.0343668, Final residual = 0.000219412, No Iterations 5
time step continuity errors : sum local = 0.000275453, global = -2.55543e-05, cumulative = -0.000460358
smoothSolver:  Solving for omega, Initial residual = 0.00109396, Final residual = 2.66879e-05, No Iterations 2
smoothSolver:  Solving for k, Initial residual = 0.0107449, Final residual = 0.000682931, No Iterations 1
ExecutionTime = 75.12 s  ClockTime = 76 s

forceCoeffs forceCoeffs1 write:
    Coefficient	Total	Pressure	Viscous	Internal
    Cd:	0.567385	0.54208	0.0253049	0
    Cd(f):	-0.143974	-0.156084	0.0121108	0
    Cd(r):	0.711359	0.698164	0.0131941	0
    Cl:	0.689454	0.688883	0.000570261	0
    Cl(f):	0.868629	0.857099	0.0115298	0
    Cl(r):	-0.179175	-0.168216	-0.0109595	0
    CmPitch:	0.523902	0.512657	0.0112447	0
    CmRoll:	-0.427666	-0.427124	-0.000541685	0
    CmYaw:	-2.07292	-2.06221	-0.0107069	0
    Cs:	1.37282	1.37084	0.00198269	0
    Cs(f):	-1.38651	-1.37679	-0.00971557	0
    Cs(r):	2.75933	2.74764	0.0116983	0

    writing force and moment coefficient files.

Time = 18

smoothSolver:  Solving for Ux, Initial residual = 0.0053476, Final residual = 0.000259076, No Iterations 3
smoothSolver:  Solving for Uy, Initial residual = 0.00782903, Final residual = 0.000313223, No Iterations 3
smoothSolver:  Solving for Uz, Initial residual = 0.00743929, Final residual = 0.000329601, No Iterations 3
GAMG:  Solving for p, Initial residual = 0.0314655, Final residual = 0.000190405, No Iterations 5
time step continuity errors : sum local = 0.000250744, global = -5.73119e-06, cumulative = -0.000466089
smoothSolver:  Solving for omega, Initial residual = 0.0010528, Final residual = 2.56169e-05, No Iterations 2
smoothSolver:  Solving for k, Initial residual = 0.00981461, Final residual = 0.000637484, No Iterations 1
ExecutionTime = 79.67 s  ClockTime = 80 s

forceCoeffs forceCoeffs1 write:
    Coefficient	Total	Pressure	Viscous	Internal
    Cd:	0.561951	0.535902	0.0260486	0
    Cd(f):	-0.145961	-0.158433	0.0124724	0
    Cd(r):	0.707912	0.694335	0.0135762	0
    Cl:	0.696412	0.695779	0.000632698	0
    Cl(f):	0.877074	0.865145	0.0119293	0
    Cl(r):	-0.180662	-0.169366	-0.0112966	0
    CmPitch:	0.528868	0.517255	0.0116129	0
    CmRoll:	-0.426936	-0.426384	-0.00055186	0
    CmYaw:	-2.07401	-2.06296	-0.0110551	0
    Cs:	1.37442	1.37236	0.00205403	0
    Cs(f):	-1.3868	-1.37678	-0.0100281	0
    Cs(r):	2.76122	2.74914	0.0120821	0

    writing force and moment coefficient files.

Time = 19

smoothSolver:  Solving for Ux, Initial residual = 0.00520012, Final residual = 0.00025076, No Iterations 3
smoothSolver:  Solving for Uy, Initial residual = 0.00767217, Final residual = 0.000307147, No Iterations 3
smoothSolver:  Solving for Uz, Initial residual = 0.00729343, Final residual = 0.000320604, No Iterations 3
GAMG:  Solving for p, Initial residual = 0.0318669, Final residual = 0.00019631, No Iterations 5
time step continuity errors : sum local = 0.000244297, global = 7.18844e-06, cumulative = -0.000458901
smoothSolver:  Solving for omega, Initial residual = 0.00102132, Final residual = 2.48279e-05, No Iterations 2
smoothSolver:  Solving for k, Initial residual = 0.00901051, Final residual = 0.000597361, No Iterations 1
ExecutionTime = 83.93 s  ClockTime = 84 s

forceCoeffs forceCoeffs1 write:
    Coefficient	Total	Pressure	Viscous	Internal
    Cd:	0.555661	0.528927	0.0267338	0
    Cd(f):	-0.150638	-0.163444	0.012806	0
    Cd(r):	0.706299	0.692372	0.0139278	0
    Cl:	0.69443	0.693732	0.00069717	0
    Cl(f):	0.87271	0.860405	0.0123058	0
    Cl(r):	-0.178281	-0.166672	-0.0116087	0
    CmPitch:	0.525496	0.513538	0.0119572	0
    CmRoll:	-0.428469	-0.427908	-0.000560879	0
    CmYaw:	-2.07673	-2.06535	-0.0113836	0
    Cs:	1.37777	1.37565	0.00212416	0
    Cs(f):	-1.38785	-1.37753	-0.0103216	0
    Cs(r):	2.76562	2.75317	0.0124457	0

    writing force and moment coefficient files.

Time = 20

smoothSolver:  Solving for Ux, Initial residual = 0.00508871, Final residual = 0.000243941, No Iterations 3
smoothSolver:  Solving for Uy, Initial residual = 0.00754334, Final residual = 0.000303016, No Iterations 3
smoothSolver:  Solving for Uz, Initial residual = 0.00718633, Final residual = 0.000313597, No Iterations 3
GAMG:  Solving for p, Initial residual = 0.0306298, Final residual = 0.00030398, No Iterations 4
time step continuity errors : sum local = 0.000380748, global = 1.95217e-05, cumulative = -0.000439379
smoothSolver:  Solving for omega, Initial residual = 0.000990053, Final residual = 2.39482e-05, No Iterations 2
smoothSolver:  Solving for k, Initial residual = 0.0083123, Final residual = 0.000560562, No Iterations 1
ExecutionTime = 88.86 s  ClockTime = 89 s

forceCoeffs forceCoeffs1 write:
    Coefficient	Total	Pressure	Viscous	Internal
    Cd:	0.550603	0.523265	0.0273375	0
    Cd(f):	-0.153547	-0.166646	0.0130991	0
    Cd(r):	0.704149	0.689911	0.0142383	0
    Cl:	0.695696	0.694939	0.000757727	0
    Cl(f):	0.876413	0.863768	0.0126447	0
    Cl(r):	-0.180716	-0.168829	-0.011887	0
    CmPitch:	0.528565	0.516299	0.0122658	0
    CmRoll:	-0.428848	-0.428278	-0.000569603	0
    CmYaw:	-2.07777	-2.06608	-0.0116839	0
    Cs:	1.37959	1.3774	0.00219179	0
    Cs(f):	-1.38797	-1.37738	-0.010588	0
    Cs(r):	2.76756	2.75478	0.0127798	0

    writing force and moment coefficient files.

Time = 21

smoothSolver:  Solving for Ux, Initial residual = 0.00496549, Final residual = 0.000235806, No Iterations 3
smoothSolver:  Solving for Uy, Initial residual = 0.0074188, Final residual = 0.000297287, No Iterations 3
smoothSolver:  Solving for Uz, Initial residual = 0.00705992, Final residual = 0.000304799, No Iterations 3
GAMG:  Solving for p, Initial residual = 0.0294319, Final residual = 0.000201983, No Iterations 5
time step continuity errors : sum local = 0.000252311, global = 1.88892e-05, cumulative = -0.00042049
smoothSolver:  Solving for omega, Initial residual = 0.000963614, Final residual = 2.32322e-05, No Iterations 2
smoothSolver:  Solving for k, Initial residual = 0.00769292, Final residual = 0.000526816, No Iterations 1
ExecutionTime = 92.84 s  ClockTime = 93 s

forceCoeffs forceCoeffs1 write:
    Coefficient	Total	Pressure	Viscous	Internal
    Cd:	0.546372	0.518496	0.0278765	0
    Cd(f):	-0.157238	-0.170599	0.0133606	0
    Cd(r):	0.703611	0.689095	0.0145159	0
    Cl:	0.689764	0.688944	0.0008207	0
    Cl(f):	0.869087	0.856129	0.0129579	0
    Cl(r):	-0.179322	-0.167185	-0.0121372	0
    CmPitch:	0.524204	0.511657	0.0125475	0
    CmRoll:	-0.430424	-0.429847	-0.000577657	0
    CmYaw:	-2.07954	-2.06758	-0.0119624	0
    Cs:	1.38181	1.37956	0.0022562	0
    Cs(f):	-1.38863	-1.3778	-0.0108343	0
    Cs(r):	2.77045	2.75736	0.0130905	0

    writing force and moment coefficient files.

Time = 22

smoothSolver:  Solving for Ux, Initial residual = 0.00486627, Final residual = 0.000230061, No Iterations 3
smoothSolver:  Solving for Uy, Initial residual = 0.00729544, Final residual = 0.000291478, No Iterations 3
smoothSolver:  Solving for Uz, Initial residual = 0.00696009, Final residual = 0.000296511, No Iterations 3
GAMG:  Solving for p, Initial residual = 0.027502, Final residual = 0.000171255, No Iterations 5
time step continuity errors : sum local = 0.000225835, global = 9.5253e-06, cumulative = -0.000410965
smoothSolver:  Solving for omega, Initial residual = 0.000937376, Final residual = 2.24916e-05, No Iterations 2
smoothSolver:  Solving for k, Initial residual = 0.00715282, Final residual = 0.000496323, No Iterations 1
ExecutionTime = 97.22 s  ClockTime = 98 s

forceCoeffs forceCoeffs1 write:
    Coefficient	Total	Pressure	Viscous	Internal
    Cd:	0.541879	0.513536	0.0283432	0
    Cd(f):	-0.160229	-0.173816	0.0135863	0
    Cd(r):	0.702108	0.687351	0.0147569	0
    Cl:	0.685864	0.684982	0.000881114	0
    Cl(f):	0.867153	0.853914	0.0132388	0
    Cl(r):	-0.18129	-0.168932	-0.0123577	0
    CmPitch:	0.524221	0.511423	0.0127983	0
    CmRoll:	-0.431169	-0.430583	-0.000585328	0
    CmYaw:	-2.07916	-2.06694	-0.0122164	0
    Cs:	1.3827	1.38038	0.00231912	0
    Cs(f):	-1.38781	-1.37675	-0.0110569	0
    Cs(r):	2.77051	2.75713	0.013376	0

    writing force and moment coefficient files.

Time = 23

smoothSolver:  Solving for Ux, Initial residual = 0.00479198, Final residual = 0.000224735, No Iterations 3
smoothSolver:  Solving for Uy, Initial residual = 0.00719757, Final residual = 0.00028749, No Iterations 3
smoothSolver:  Solving for Uz, Initial residual = 0.00687617, Final residual = 0.000289085, No Iterations 3
GAMG:  Solving for p, Initial residual = 0.0284494, Final residual = 0.000185671, No Iterations 5
time step continuity errors : sum local = 0.000232415, global = -7.4334e-06, cumulative = -0.000418398
smoothSolver:  Solving for omega, Initial residual = 0.000916693, Final residual = 2.18898e-05, No Iterations 2
smoothSolver:  Solving for k, Initial residual = 0.00667801, Final residual = 0.000468968, No Iterations 1
ExecutionTime = 101.71 s  ClockTime = 102 s

forceCoeffs forceCoeffs1 write:
    Coefficient	Total	Pressure	Viscous	Internal
    Cd:	0.535433	0.506682	0.0287504	0
    Cd(f):	-0.164559	-0.178341	0.0137819	0
    Cd(r):	0.699991	0.685023	0.0149685	0
    Cl:	0.676976	0.676037	0.000938088	0
    Cl(f):	0.857287	0.843794	0.0134928	0
    Cl(r):	-0.180312	-0.167757	-0.0125547	0
    CmPitch:	0.518799	0.505776	0.0130238	0
    CmRoll:	-0.432275	-0.431682	-0.000593285	0
    CmYaw:	-2.07798	-2.06552	-0.0124537	0
    Cs:	1.3833	1.38092	0.00238024	0
    Cs(f):	-1.38633	-1.37506	-0.0112636	0
    Cs(r):	2.76962	2.75598	0.0136438	0

    writing force and moment coefficient files.

Time = 24

smoothSolver:  Solving for Ux, Initial residual = 0.00470098, Final residual = 0.000219084, No Iterations 3
smoothSolver:  Solving for Uy, Initial residual = 0.00708542, Final residual = 0.000282569, No Iterations 3
smoothSolver:  Solving for Uz, Initial residual = 0.00677379, Final residual = 0.000279529, No Iterations 3
GAMG:  Solving for p, Initial residual = 0.0273499, Final residual = 0.000185683, No Iterations 5
time step continuity errors : sum local = 0.000238761, global = -2.67754e-05, cumulative = -0.000445174
smoothSolver:  Solving for omega, Initial residual = 0.000895769, Final residual = 2.12471e-05, No Iterations 2
smoothSolver:  Solving for k, Initial residual = 0.00626003, Final residual = 0.000444025, No Iterations 1
ExecutionTime = 106.36 s  ClockTime = 107 s

forceCoeffs forceCoeffs1 write:
    Coefficient	Total	Pressure	Viscous	Internal
    Cd:	0.531499	0.502417	0.0290818	0
    Cd(f):	-0.165334	-0.179275	0.013941	0
    Cd(r):	0.696834	0.681693	0.0151408	0
    Cl:	0.674763	0.673769	0.000994213	0
    Cl(f):	0.857207	0.843494	0.0137132	0
    Cl(r):	-0.182444	-0.169725	-0.012719	0
    CmPitch:	0.519826	0.506609	0.0132161	0
    CmRoll:	-0.431084	-0.430484	-0.000599916	0
    CmYaw:	-2.07398	-2.06131	-0.0126637	0
    Cs:	1.38053	1.3781	0.0024365	0
    Cs(f):	-1.38371	-1.37226	-0.0114454	0
    Cs(r):	2.76424	2.75036	0.0138819	0

    writing force and moment coefficient files.

Time = 25

smoothSolver:  Solving for Ux, Initial residual = 0.00464282, Final residual = 0.000215431, No Iterations 3
smoothSolver:  Solving for Uy, Initial residual = 0.00700554, Final residual = 0.000277224, No Iterations 3
smoothSolver:  Solving for Uz, Initial residual = 0.00670736, Final residual = 0.000272733, No Iterations 3
GAMG:  Solving for p, Initial residual = 0.0284601, Final residual = 0.000221337, No Iterations 5
time step continuity errors : sum local = 0.000279992, global = -4.05767e-05, cumulative = -0.00048575
smoothSolver:  Solving for omega, Initial residual = 0.000879098, Final residual = 2.07671e-05, No Iterations 2
smoothSolver:  Solving for k, Initial residual = 0.00588962, Final residual = 0.000422408, No Iterations 1
ExecutionTime = 111.72 s  ClockTime = 112 s

forceCoeffs forceCoeffs1 write:
    Coefficient	Total	Pressure	Viscous	Internal
    Cd:	0.524536	0.495181	0.029355	0
    Cd(f):	-0.168245	-0.182316	0.0140715	0
    Cd(r):	0.692781	0.677498	0.0152835	0
    Cl:	0.667688	0.666638	0.00105026	0
    Cl(f):	0.850242	0.836329	0.0139126	0
    Cl(r):	-0.182554	-0.169692	-0.0128623	0
    CmPitch:	0.516398	0.503011	0.0133874	0
    CmRoll:	-0.430513	-0.429907	-0.000606005	0
    CmYaw:	-2.06926	-2.05641	-0.0128531	0
    Cs:	1.37748	1.375	0.00248896	0
    Cs(f):	-1.38052	-1.36891	-0.0116086	0
    Cs(r):	2.75801	2.74391	0.0140976	0

    writing force and moment coefficient files.

Time = 26

smoothSolver:  Solving for Ux, Initial residual = 0.0045855, Final residual = 0.000212617, No Iterations 3
smoothSolver:  Solving for Uy, Initial residual = 0.00692601, Final residual = 0.000273419, No Iterations 3
smoothSolver:  Solving for Uz, Initial residual = 0.00663884, Final residual = 0.000264978, No Iterations 3
GAMG:  Solving for p, Initial residual = 0.0288456, Final residual = 0.00022606, No Iterations 5
time step continuity errors : sum local = 0.000278101, global = -4.16586e-05, cumulative = -0.000527409
smoothSolver:  Solving for omega, Initial residual = 0.000862862, Final residual = 2.02742e-05, No Iterations 2
smoothSolver:  Solving for k, Initial residual = 0.00557365, Final residual = 0.000403777, No Iterations 1
ExecutionTime = 117.85 s  ClockTime = 118 s

forceCoeffs forceCoeffs1 write:
    Coefficient	Total	Pressure	Viscous	Internal
    Cd:	0.520831	0.491266	0.0295654	0
    Cd(f):	-0.168634	-0.182806	0.0141716	0
    Cd(r):	0.689465	0.674072	0.0153938	0
    Cl:	0.665696	0.664596	0.00110052	0
    Cl(f):	0.851086	0.837005	0.0140809	0
    Cl(r):	-0.185389	-0.172409	-0.0129804	0
    CmPitch:	0.518238	0.504707	0.0135306	0
    CmRoll:	-0.42905	-0.428439	-0.000611115	0
    CmYaw:	-2.06474	-2.05172	-0.0130202	0
    Cs:	1.37379	1.37125	0.00253708	0
    Cs(f):	-1.37785	-1.3661	-0.0117516	0
    Cs(r):	2.75164	2.73735	0.0142887	0

    writing force and moment coefficient files.

Time = 27

smoothSolver:  Solving for Ux, Initial residual = 0.00452482, Final residual = 0.000209369, No Iterations 3
smoothSolver:  Solving for Uy, Initial residual = 0.00684563, Final residual = 0.000269033, No Iterations 3
smoothSolver:  Solving for Uz, Initial residual = 0.00657046, Final residual = 0.000260939, No Iterations 3
GAMG:  Solving for p, Initial residual = 0.029573, Final residual = 0.000231236, No Iterations 5
time step continuity errors : sum local = 0.00027353, global = -3.74659e-05, cumulative = -0.000564875
smoothSolver:  Solving for omega, Initial residual = 0.000848023, Final residual = 1.98548e-05, No Iterations 2
smoothSolver:  Solving for k, Initial residual = 0.00528805, Final residual = 0.000387109, No Iterations 1
ExecutionTime = 122.07 s  ClockTime = 123 s

forceCoeffs forceCoeffs1 write:
    Coefficient	Total	Pressure	Viscous	Internal
    Cd:	0.515736	0.485997	0.0297389	0
    Cd(f):	-0.170874	-0.185128	0.0142535	0
    Cd(r):	0.68661	0.671125	0.0154854	0
    Cl:	0.660168	0.659018	0.00115004	0
    Cl(f):	0.845902	0.831667	0.0142341	0
    Cl(r):	-0.185734	-0.17265	-0.0130841	0
    CmPitch:	0.515818	0.502158	0.0136591	0
    CmRoll:	-0.428742	-0.428126	-0.000615927	0
    CmYaw:	-2.06276	-2.04959	-0.013169	0
    Cs:	1.37229	1.36971	0.00257996	0
    Cs(f):	-1.37662	-1.36474	-0.011879	0
    Cs(r):	2.74891	2.73445	0.014459	0

    writing force and moment coefficient files.

Time = 28

smoothSolver:  Solving for Ux, Initial residual = 0.00445779, Final residual = 0.000206957, No Iterations 3
smoothSolver:  Solving for Uy, Initial residual = 0.00676871, Final residual = 0.000265344, No Iterations 3
smoothSolver:  Solving for Uz, Initial residual = 0.0065231, Final residual = 0.000647373, No Iterations 2
GAMG:  Solving for p, Initial residual = 0.0283262, Final residual = 0.000201805, No Iterations 5
time step continuity errors : sum local = 0.000252436, global = -3.12644e-05, cumulative = -0.000596139
smoothSolver:  Solving for omega, Initial residual = 0.000833848, Final residual = 1.94482e-05, No Iterations 2
smoothSolver:  Solving for k, Initial residual = 0.00503658, Final residual = 0.00037256, No Iterations 1
ExecutionTime = 126.36 s  ClockTime = 127 s

forceCoeffs forceCoeffs1 write:
    Coefficient	Total	Pressure	Viscous	Internal
    Cd:	0.513219	0.48336	0.0298591	0
    Cd(f):	-0.170848	-0.185158	0.01431	0
    Cd(r):	0.684067	0.668518	0.0155491	0
    Cl:	0.660653	0.659457	0.00119599	0
    Cl(f):	0.848261	0.833897	0.0143634	0
    Cl(r):	-0.187608	-0.174441	-0.0131674	0
    CmPitch:	0.517934	0.504169	0.0137654	0
    CmRoll:	-0.427458	-0.426838	-0.00061956	0
    CmYaw:	-2.06027	-2.04697	-0.0132976	0
    Cs:	1.36978	1.36716	0.00262028	0
    Cs(f):	-1.37538	-1.36339	-0.0119875	0
    Cs(r):	2.74516	2.73055	0.0146077	0

    writing force and moment coefficient files.

Time = 29

smoothSolver:  Solving for Ux, Initial residual = 0.00439927, Final residual = 0.000204086, No Iterations 3
smoothSolver:  Solving for Uy, Initial residual = 0.00670384, Final residual = 0.000261606, No Iterations 3
smoothSolver:  Solving for Uz, Initial residual = 0.00650259, Final residual = 0.000262064, No Iterations 3
GAMG:  Solving for p, Initial residual = 0.0304412, Final residual = 0.000224392, No Iterations 5
time step continuity errors : sum local = 0.000261986, global = -2.69331e-05, cumulative = -0.000623072
smoothSolver:  Solving for omega, Initial residual = 0.000820885, Final residual = 1.90874e-05, No Iterations 2
smoothSolver:  Solving for k, Initial residual = 0.00481006, Final residual = 0.000359279, No Iterations 1
ExecutionTime = 130.6 s  ClockTime = 131 s

forceCoeffs forceCoeffs1 write:
    Coefficient	Total	Pressure	Viscous	Internal
    Cd:	0.509478	0.479529	0.0299489	0
    Cd(f):	-0.17254	-0.186891	0.0143512	0
    Cd(r):	0.682017	0.666419	0.0155978	0
    Cl:	0.655891	0.654651	0.00124016	0
    Cl(f):	0.84206	0.827584	0.0144758	0
    Cl(r):	-0.186169	-0.172933	-0.0132356	0
    CmPitch:	0.514114	0.500259	0.0138557	0
    CmRoll:	-0.427278	-0.426655	-0.000623287	0
    CmYaw:	-2.05861	-2.0452	-0.0134082	0
    Cs:	1.36851	1.36585	0.0026563	0
    Cs(f):	-1.37435	-1.36227	-0.01208	0
    Cs(r):	2.74286	2.72813	0.0147363	0

    writing force and moment coefficient files.

Time = 30

smoothSolver:  Solving for Ux, Initial residual = 0.00433951, Final residual = 0.000201267, No Iterations 3
smoothSolver:  Solving for Uy, Initial residual = 0.00663468, Final residual = 0.00025838, No Iterations 3
smoothSolver:  Solving for Uz, Initial residual = 0.00644275, Final residual = 0.000255763, No Iterations 3
GAMG:  Solving for p, Initial residual = 0.0284082, Final residual = 0.000192821, No Iterations 5
time step continuity errors : sum local = 0.000236837, global = -2.44506e-05, cumulative = -0.000647523
smoothSolver:  Solving for omega, Initial residual = 0.000808355, Final residual = 1.87204e-05, No Iterations 2
smoothSolver:  Solving for k, Initial residual = 0.00461629, Final residual = 0.000348846, No Iterations 1
ExecutionTime = 134.44 s  ClockTime = 135 s

forceCoeffs forceCoeffs1 write:
    Coefficient	Total	Pressure	Viscous	Internal
    Cd:	0.50822	0.478232	0.0299878	0
    Cd(f):	-0.172343	-0.18671	0.0143673	0
    Cd(r):	0.680562	0.664942	0.0156205	0
    Cl:	0.655201	0.653922	0.00127966	0
    Cl(f):	0.84213	0.827567	0.0145632	0
    Cl(r):	-0.186929	-0.173646	-0.0132836	0
    CmPitch:	0.51453	0.500606	0.0139234	0
    CmRoll:	-0.426453	-0.425826	-0.000626602	0
    CmYaw:	-2.05754	-2.04404	-0.0134992	0
    Cs:	1.36678	1.36409	0.00268973	0
    Cs(f):	-1.37415	-1.36199	-0.0121544	0
    Cs(r):	2.74092	2.72608	0.0148441	0

    writing force and moment coefficient files.

Time = 31

smoothSolver:  Solving for Ux, Initial residual = 0.00428494, Final residual = 0.000198096, No Iterations 3
smoothSolver:  Solving for Uy, Initial residual = 0.0065782, Final residual = 0.00065635, No Iterations 2
smoothSolver:  Solving for Uz, Initial residual = 0.00640253, Final residual = 0.000632468, No Iterations 2
GAMG:  Solving for p, Initial residual = 0.0307145, Final residual = 0.000203547, No Iterations 5
time step continuity errors : sum local = 0.000242288, global = -2.17219e-05, cumulative = -0.000669245
smoothSolver:  Solving for omega, Initial residual = 0.000797261, Final residual = 1.83793e-05, No Iterations 2
smoothSolver:  Solving for k, Initial residual = 0.00444371, Final residual = 0.00033955, No Iterations 1
ExecutionTime = 138.14 s  ClockTime = 139 s

forceCoeffs forceCoeffs1 write:
    Coefficient	Total	Pressure	Viscous	Internal
    Cd:	0.504333	0.474322	0.0300106	0
    Cd(f):	-0.174756	-0.189131	0.0143756	0
    Cd(r):	0.679089	0.663454	0.015635	0
    Cl:	0.649138	0.647813	0.00132475	0
    Cl(f):	0.834777	0.820132	0.0146445	0
    Cl(r):	-0.185639	-0.172319	-0.0133198	0
    CmPitch:	0.510208	0.496226	0.0139822	0
    CmRoll:	-0.426922	-0.426292	-0.000629713	0
    CmYaw:	-2.05741	-2.04383	-0.0135826	0
    Cs:	1.36674	1.36402	0.00272125	0
    Cs(f):	-1.37404	-1.36182	-0.012222	0
    Cs(r):	2.74078	2.72584	0.0149432	0

    writing force and moment coefficient files.

Time = 32

smoothSolver:  Solving for Ux, Initial residual = 0.00423287, Final residual = 0.000195359, No Iterations 3
smoothSolver:  Solving for Uy, Initial residual = 0.00653219, Final residual = 0.000261623, No Iterations 3
smoothSolver:  Solving for Uz, Initial residual = 0.00637764, Final residual = 0.000254054, No Iterations 3
GAMG:  Solving for p, Initial residual = 0.0294872, Final residual = 0.000183025, No Iterations 5
time step continuity errors : sum local = 0.000221976, global = -2.17233e-05, cumulative = -0.000690968
smoothSolver:  Solving for omega, Initial residual = 0.000785383, Final residual = 1.80404e-05, No Iterations 2
smoothSolver:  Solving for k, Initial residual = 0.0042928, Final residual = 0.000332441, No Iterations 1
ExecutionTime = 143.36 s  ClockTime = 144 s

forceCoeffs forceCoeffs1 write:
    Coefficient	Total	Pressure	Viscous	Internal
    Cd:	0.502356	0.472354	0.0300015	0
    Cd(f):	-0.175813	-0.190182	0.0143688	0
    Cd(r):	0.678168	0.662536	0.0156327	0
    Cl:	0.645558	0.644192	0.00136661	0
    Cl(f):	0.832397	0.817694	0.0147036	0
    Cl(r):	-0.186839	-0.173502	-0.013337	0
    CmPitch:	0.509618	0.495598	0.0140203	0
    CmRoll:	-0.426991	-0.426359	-0.000631945	0
    CmYaw:	-2.05676	-2.04311	-0.0136486	0
    Cs:	1.36618	1.36343	0.00274724	0
    Cs(f):	-1.37367	-1.36139	-0.0122749	0
    Cs(r):	2.73985	2.72483	0.0150222	0

    writing force and moment coefficient files.

Time = 33

smoothSolver:  Solving for Ux, Initial residual = 0.00417444, Final residual = 0.000192679, No Iterations 3
smoothSolver:  Solving for Uy, Initial residual = 0.00647259, Final residual = 0.000257671, No Iterations 3
smoothSolver:  Solving for Uz, Initial residual = 0.0063223, Final residual = 0.00062482, No Iterations 2
GAMG:  Solving for p, Initial residual = 0.0303791, Final residual = 0.000206893, No Iterations 5
time step continuity errors : sum local = 0.000244222, global = -2.54915e-05, cumulative = -0.000716459
smoothSolver:  Solving for omega, Initial residual = 0.000773802, Final residual = 1.77091e-05, No Iterations 2
smoothSolver:  Solving for k, Initial residual = 0.00415782, Final residual = 0.000326217, No Iterations 1
ExecutionTime = 147.85 s  ClockTime = 148 s

forceCoeffs forceCoeffs1 write:
    Coefficient	Total	Pressure	Viscous	Internal
    Cd:	0.500101	0.47013	0.029971	0
    Cd(f):	-0.177597	-0.191947	0.0143501	0
    Cd(r):	0.677698	0.662077	0.0156209	0
    Cl:	0.637348	0.635938	0.00140933	0
    Cl(f):	0.823269	0.808513	0.0147563	0
    Cl(r):	-0.185921	-0.172574	-0.013347	0
    CmPitch:	0.504595	0.490544	0.0140517	0
    CmRoll:	-0.427648	-0.427012	-0.000635407	0
    CmYaw:	-2.0562	-2.04249	-0.0137028	0
    Cs:	1.36572	1.36294	0.00277352	0
    Cs(f):	-1.37334	-1.36102	-0.0123161	0
    Cs(r):	2.73906	2.72397	0.0150896	0

    writing force and moment coefficient files.

Time = 34

smoothSolver:  Solving for Ux, Initial residual = 0.00412921, Final residual = 0.000190086, No Iterations 3
smoothSolver:  Solving for Uy, Initial residual = 0.0064215, Final residual = 0.00025291, No Iterations 3
smoothSolver:  Solving for Uz, Initial residual = 0.00630979, Final residual = 0.000250124, No Iterations 3
GAMG:  Solving for p, Initial residual = 0.0297684, Final residual = 0.000189049, No Iterations 5
time step continuity errors : sum local = 0.000227146, global = -2.80749e-05, cumulative = -0.000744534
smoothSolver:  Solving for omega, Initial residual = 0.000763872, Final residual = 1.74181e-05, No Iterations 2
smoothSolver:  Solving for k, Initial residual = 0.00404709, Final residual = 0.000321752, No Iterations 1
ExecutionTime = 152.08 s  ClockTime = 153 s

forceCoeffs forceCoeffs1 write:
    Coefficient	Total	Pressure	Viscous	Internal
    Cd:	0.500488	0.470577	0.0299106	0
    Cd(f):	-0.177622	-0.191941	0.0143195	0
    Cd(r):	0.678109	0.662518	0.0155911	0
    Cl:	0.630516	0.629063	0.00145293	0
    Cl(f):	0.817779	0.802995	0.0147842	0
    Cl(r):	-0.187263	-0.173932	-0.0133313	0
    CmPitch:	0.502521	0.488463	0.0140577	0
    CmRoll:	-0.427866	-0.42723	-0.000635805	0
    CmYaw:	-2.05518	-2.04144	-0.013745	0
    Cs:	1.36439	1.36159	0.00279402	0
    Cs(f):	-1.37299	-1.36064	-0.012348	0
    Cs(r):	2.73738	2.72224	0.0151421	0

    writing force and moment coefficient files.

Time = 35

smoothSolver:  Solving for Ux, Initial residual = 0.00408533, Final residual = 0.000187572, No Iterations 3
smoothSolver:  Solving for Uy, Initial residual = 0.00637248, Final residual = 0.000636767, No Iterations 2
smoothSolver:  Solving for Uz, Initial residual = 0.00626619, Final residual = 0.000620227, No Iterations 2
GAMG:  Solving for p, Initial residual = 0.0305652, Final residual = 0.000204581, No Iterations 5
time step continuity errors : sum local = 0.000245326, global = -2.93661e-05, cumulative = -0.0007739
smoothSolver:  Solving for omega, Initial residual = 0.000754443, Final residual = 1.71968e-05, No Iterations 2
smoothSolver:  Solving for k, Initial residual = 0.00394792, Final residual = 0.000318056, No Iterations 1
ExecutionTime = 156 s  ClockTime = 157 s

forceCoeffs forceCoeffs1 write:
    Coefficient	Total	Pressure	Viscous	Internal
    Cd:	0.499513	0.469667	0.0298463	0
    Cd(f):	-0.178886	-0.193173	0.0142869	0
    Cd(r):	0.6784	0.66284	0.0155595	0
    Cl:	0.621306	0.619811	0.00149499	0
    Cl(f):	0.807828	0.793019	0.0148088	0
    Cl(r):	-0.186521	-0.173208	-0.0133138	0
    CmPitch:	0.497175	0.483113	0.0140613	0
    CmRoll:	-0.428643	-0.428007	-0.00063629	0
    CmYaw:	-2.05527	-2.04148	-0.0137844	0
    Cs:	1.36393	1.36112	0.00281055	0
    Cs(f):	-1.3733	-1.36092	-0.0123791	0
    Cs(r):	2.73723	2.72204	0.0151897	0

    writing force and moment coefficient files.

Time = 36

smoothSolver:  Solving for Ux, Initial residual = 0.00405315, Final residual = 0.000185423, No Iterations 3
smoothSolver:  Solving for Uy, Initial residual = 0.00634756, Final residual = 0.000253075, No Iterations 3
smoothSolver:  Solving for Uz, Initial residual = 0.00625989, Final residual = 0.000246586, No Iterations 3
GAMG:  Solving for p, Initial residual = 0.0303968, Final residual = 0.00030157, No Iterations 4
time step continuity errors : sum local = 0.000359959, global = -3.1544e-05, cumulative = -0.000805444
smoothSolver:  Solving for omega, Initial residual = 0.000745128, Final residual = 1.69626e-05, No Iterations 2
smoothSolver:  Solving for k, Initial residual = 0.00386242, Final residual = 0.000315706, No Iterations 1
ExecutionTime = 159.63 s  ClockTime = 160 s

forceCoeffs forceCoeffs1 write:
    Coefficient	Total	Pressure	Viscous	Internal
    Cd:	0.500419	0.470663	0.0297558	0
    Cd(f):	-0.178975	-0.193216	0.014241	0
    Cd(r):	0.679394	0.663879	0.0155148	0
    Cl:	0.615692	0.614156	0.00153614	0
    Cl(f):	0.80387	0.789057	0.0148127	0
    Cl(r):	-0.188178	-0.174901	-0.0132765	0
    CmPitch:	0.496024	0.481979	0.0140446	0
    CmRoll:	-0.429185	-0.428548	-0.000636923	0
    CmYaw:	-2.05495	-2.04115	-0.0138092	0
    Cs:	1.36354	1.36071	0.00282832	0
    Cs(f):	-1.37319	-1.36079	-0.0123951	0
    Cs(r):	2.73672	2.7215	0.0152234	0

    writing force and moment coefficient files.

Time = 37

smoothSolver:  Solving for Ux, Initial residual = 0.00401466, Final residual = 0.000183791, No Iterations 3
smoothSolver:  Solving for Uy, Initial residual = 0.00630529, Final residual = 0.000247311, No Iterations 3
smoothSolver:  Solving for Uz, Initial residual = 0.00621826, Final residual = 0.000609707, No Iterations 2
GAMG:  Solving for p, Initial residual = 0.0302345, Final residual = 0.000225008, No Iterations 5
time step continuity errors : sum local = 0.000269069, global = -3.235e-05, cumulative = -0.000837794
smoothSolver:  Solving for omega, Initial residual = 0.000737344, Final residual = 1.67627e-05, No Iterations 2
smoothSolver:  Solving for k, Initial residual = 0.00378781, Final residual = 0.000314053, No Iterations 1
ExecutionTime = 163.69 s  ClockTime = 164 s

forceCoeffs forceCoeffs1 write:
    Coefficient	Total	Pressure	Viscous	Internal
    Cd:	0.500732	0.471065	0.0296672	0
    Cd(f):	-0.179198	-0.193393	0.0141958	0
    Cd(r):	0.67993	0.664459	0.0154714	0
    Cl:	0.606343	0.604767	0.00157586	0
    Cl(f):	0.793925	0.779109	0.0148156	0
    Cl(r):	-0.187582	-0.174342	-0.0132397	0
    CmPitch:	0.490753	0.476726	0.0140276	0
    CmRoll:	-0.429564	-0.428926	-0.00063779	0
    CmYaw:	-2.0535	-2.03967	-0.013828	0
    Cs:	1.36143	1.35859	0.0028422	0
    Cs(f):	-1.37279	-1.36038	-0.0124069	0
    Cs(r):	2.73421	2.71896	0.0152491	0

    writing force and moment coefficient files.

Time = 38

smoothSolver:  Solving for Ux, Initial residual = 0.00398913, Final residual = 0.000182315, No Iterations 3
smoothSolver:  Solving for Uy, Initial residual = 0.00628185, Final residual = 0.000625005, No Iterations 2
smoothSolver:  Solving for Uz, Initial residual = 0.00621373, Final residual = 0.000618863, No Iterations 2
GAMG:  Solving for p, Initial residual = 0.0307734, Final residual = 0.000288925, No Iterations 4
time step continuity errors : sum local = 0.00034179, global = -2.87324e-05, cumulative = -0.000866527
smoothSolver:  Solving for omega, Initial residual = 0.000726321, Final residual = 1.65128e-05, No Iterations 2
smoothSolver:  Solving for k, Initial residual = 0.00371517, Final residual = 0.000312475, No Iterations 1
ExecutionTime = 167.47 s  ClockTime = 168 s

forceCoeffs forceCoeffs1 write:
    Coefficient	Total	Pressure	Viscous	Internal
    Cd:	0.501546	0.471977	0.0295692	0
    Cd(f):	-0.179241	-0.193386	0.0141448	0
    Cd(r):	0.680787	0.665363	0.0154245	0
    Cl:	0.600986	0.599381	0.00160522	0
    Cl(f):	0.789687	0.774881	0.0148055	0
    Cl(r):	-0.188701	-0.1755	-0.0132003	0
    CmPitch:	0.489194	0.475191	0.0140029	0
    CmRoll:	-0.430014	-0.429374	-0.000639847	0
    CmYaw:	-2.05278	-2.03894	-0.0138418	0
    Cs:	1.36023	1.35738	0.00285618	0
    Cs(f):	-1.37267	-1.36025	-0.0124137	0
    Cs(r):	2.7329	2.71763	0.0152699	0

    writing force and moment coefficient files.

Time = 39

smoothSolver:  Solving for Ux, Initial residual = 0.00395061, Final residual = 0.000179902, No Iterations 3
smoothSolver:  Solving for Uy, Initial residual = 0.00625998, Final residual = 0.000247157, No Iterations 3
smoothSolver:  Solving for Uz, Initial residual = 0.00617728, Final residual = 0.00024389, No Iterations 3
GAMG:  Solving for p, Initial residual = 0.0302931, Final residual = 0.000189788, No Iterations 5
time step continuity errors : sum local = 0.000230908, global = -1.93966e-05, cumulative = -0.000885924
smoothSolver:  Solving for omega, Initial residual = 0.000716096, Final residual = 1.63358e-05, No Iterations 2
smoothSolver:  Solving for k, Initial residual = 0.00365484, Final residual = 0.000311615, No Iterations 1
ExecutionTime = 171.59 s  ClockTime = 172 s

forceCoeffs forceCoeffs1 write:
    Coefficient	Total	Pressure	Viscous	Internal
    Cd:	0.501706	0.472226	0.02948	0
    Cd(f):	-0.179875	-0.193973	0.0140987	0
    Cd(r):	0.681581	0.666199	0.0153813	0
    Cl:	0.590995	0.589361	0.0016339	0
    Cl(f):	0.780364	0.765568	0.014796	0
    Cl(r):	-0.18937	-0.176207	-0.0131621	0
    CmPitch:	0.484867	0.470888	0.0139791	0
    CmRoll:	-0.430728	-0.430086	-0.000641317	0
    CmYaw:	-2.05277	-2.03892	-0.0138487	0
    Cs:	1.35924	1.35638	0.00286528	0
    Cs(f):	-1.37315	-1.36073	-0.0124161	0
    Cs(r):	2.73239	2.71711	0.0152813	0

    writing force and moment coefficient files.

Time = 40

smoothSolver:  Solving for Ux, Initial residual = 0.00391992, Final residual = 0.000178994, No Iterations 3
smoothSolver:  Solving for Uy, Initial residual = 0.00622151, Final residual = 0.00024243, No Iterations 3
smoothSolver:  Solving for Uz, Initial residual = 0.00614334, Final residual = 0.000606621, No Iterations 2
GAMG:  Solving for p, Initial residual = 0.0307633, Final residual = 0.000280013, No Iterations 4
time step continuity errors : sum local = 0.000325785, global = -9.14136e-06, cumulative = -0.000895065
smoothSolver:  Solving for omega, Initial residual = 0.000708939, Final residual = 1.61038e-05, No Iterations 2
smoothSolver:  Solving for k, Initial residual = 0.00360285, Final residual = 0.000311391, No Iterations 1
ExecutionTime = 175.3 s  ClockTime = 176 s

forceCoeffs forceCoeffs1 write:
    Coefficient	Total	Pressure	Viscous	Internal
    Cd:	0.504449	0.475064	0.0293847	0
    Cd(f):	-0.179059	-0.19311	0.0140502	0
    Cd(r):	0.683508	0.668173	0.0153346	0
    Cl:	0.586246	0.584582	0.0016634	0
    Cl(f):	0.778405	0.763627	0.0147784	0
    Cl(r):	-0.19216	-0.179045	-0.013115	0
    CmPitch:	0.485283	0.471336	0.0139467	0
    CmRoll:	-0.431284	-0.430642	-0.000642218	0
    CmYaw:	-2.05315	-2.0393	-0.0138536	0
    Cs:	1.35901	1.35614	0.00287432	0
    Cs(f):	-1.37364	-1.36123	-0.0124165	0
    Cs(r):	2.73266	2.71737	0.0152908	0

    writing force and moment coefficient files.

Time = 41

smoothSolver:  Solving for Ux, Initial residual = 0.0038832, Final residual = 0.000176853, No Iterations 3
smoothSolver:  Solving for Uy, Initial residual = 0.00619713, Final residual = 0.000612675, No Iterations 2
smoothSolver:  Solving for Uz, Initial residual = 0.00612513, Final residual = 0.000610614, No Iterations 2
GAMG:  Solving for p, Initial residual = 0.0300845, Final residual = 0.000189222, No Iterations 5
time step continuity errors : sum local = 0.00023027, global = -5.88304e-06, cumulative = -0.000900948
smoothSolver:  Solving for omega, Initial residual = 0.000700619, Final residual = 1.59191e-05, No Iterations 2
smoothSolver:  Solving for k, Initial residual = 0.00355511, Final residual = 0.00031088, No Iterations 1
ExecutionTime = 178.86 s  ClockTime = 179 s

forceCoeffs forceCoeffs1 write:
    Coefficient	Total	Pressure	Viscous	Internal
    Cd:	0.50672	0.477424	0.029296	0
    Cd(f):	-0.178506	-0.192511	0.0140052	0
    Cd(r):	0.685226	0.669935	0.0152908	0
    Cl:	0.578662	0.576978	0.00168381	0
    Cl(f):	0.771407	0.756647	0.0147601	0
    Cl(r):	-0.192745	-0.179669	-0.0130763	0
    CmPitch:	0.482076	0.468158	0.0139182	0
    CmRoll:	-0.431866	-0.431223	-0.000642828	0
    CmYaw:	-2.05323	-2.03937	-0.0138567	0
    Cs:	1.35822	1.35534	0.00287859	0
    Cs(f):	-1.37412	-1.3617	-0.0124174	0
    Cs(r):	2.73234	2.71704	0.015296	0

    writing force and moment coefficient files.

Time = 42

smoothSolver:  Solving for Ux, Initial residual = 0.00385377, Final residual = 0.000175692, No Iterations 3
smoothSolver:  Solving for Uy, Initial residual = 0.00618823, Final residual = 0.000243886, No Iterations 3
smoothSolver:  Solving for Uz, Initial residual = 0.00610492, Final residual = 0.000241317, No Iterations 3
GAMG:  Solving for p, Initial residual = 0.030712, Final residual = 0.000267765, No Iterations 4
time step continuity errors : sum local = 0.000320878, global = -4.89166e-06, cumulative = -0.00090584
smoothSolver:  Solving for omega, Initial residual = 0.000691218, Final residual = 1.56448e-05, No Iterations 2
smoothSolver:  Solving for k, Initial residual = 0.0035083, Final residual = 0.00031145, No Iterations 1
ExecutionTime = 182.37 s  ClockTime = 183 s

forceCoeffs forceCoeffs1 write:
    Coefficient	Total	Pressure	Viscous	Internal
    Cd:	0.51006	0.480861	0.0291986	0
    Cd(f):	-0.1773	-0.191257	0.0139568	0
    Cd(r):	0.68736	0.672118	0.0152418	0
    Cl:	0.575056	0.573353	0.00170291	0
    Cl(f):	0.770298	0.755565	0.0147331	0
    Cl(r):	-0.195242	-0.182212	-0.0130302	0
    CmPitch:	0.48277	0.468888	0.0138816	0
    CmRoll:	-0.43233	-0.431688	-0.000642501	0
    CmYaw:	-2.05387	-2.04002	-0.0138502	0
    Cs:	1.35798	1.3551	0.00287953	0
    Cs(f):	-1.37488	-1.36247	-0.0124105	0
    Cs(r):	2.73286	2.71757	0.01529	0

    writing force and moment coefficient files.

Time = 43

smoothSolver:  Solving for Ux, Initial residual = 0.00382251, Final residual = 0.000173683, No Iterations 3
smoothSolver:  Solving for Uy, Initial residual = 0.006173, Final residual = 0.000239876, No Iterations 3
smoothSolver:  Solving for Uz, Initial residual = 0.00606583, Final residual = 0.000594183, No Iterations 2
GAMG:  Solving for p, Initial residual = 0.0300416, Final residual = 0.000299419, No Iterations 4
time step continuity errors : sum local = 0.000360139, global = -4.59739e-06, cumulative = -0.000910437
smoothSolver:  Solving for omega, Initial residual = 0.000681487, Final residual = 1.53995e-05, No Iterations 2
smoothSolver:  Solving for k, Initial residual = 0.00346582, Final residual = 0.000311424, No Iterations 1
ExecutionTime = 186.78 s  ClockTime = 187 s

forceCoeffs forceCoeffs1 write:
    Coefficient	Total	Pressure	Viscous	Internal
    Cd:	0.511387	0.482271	0.0291153	0
    Cd(f):	-0.177303	-0.19122	0.0139167	0
    Cd(r):	0.68869	0.673491	0.0151986	0
    Cl:	0.568464	0.566743	0.00172104	0
    Cl(f):	0.76466	0.74995	0.0147108	0
    Cl(r):	-0.196196	-0.183206	-0.0129898	0
    CmPitch:	0.480428	0.466578	0.0138503	0
    CmRoll:	-0.432996	-0.432355	-0.000640933	0
    CmYaw:	-2.05471	-2.04086	-0.0138434	0
    Cs:	1.35774	1.35487	0.00287658	0
    Cs(f):	-1.37583	-1.36343	-0.0124051	0
    Cs(r):	2.73358	2.7183	0.0152816	0

    writing force and moment coefficient files.

Time = 44

smoothSolver:  Solving for Ux, Initial residual = 0.00380172, Final residual = 0.00017207, No Iterations 3
smoothSolver:  Solving for Uy, Initial residual = 0.00615603, Final residual = 0.000611813, No Iterations 2
smoothSolver:  Solving for Uz, Initial residual = 0.00605384, Final residual = 0.000598577, No Iterations 2
GAMG:  Solving for p, Initial residual = 0.0310729, Final residual = 0.0002918, No Iterations 4
time step continuity errors : sum local = 0.000344511, global = -2.0938e-06, cumulative = -0.000912531
smoothSolver:  Solving for omega, Initial residual = 0.000675715, Final residual = 1.52193e-05, No Iterations 2
smoothSolver:  Solving for k, Initial residual = 0.00343261, Final residual = 0.000313159, No Iterations 1
ExecutionTime = 191.08 s  ClockTime = 192 s

forceCoeffs forceCoeffs1 write:
    Coefficient	Total	Pressure	Viscous	Internal
    Cd:	0.51413	0.485109	0.0290214	0
    Cd(f):	-0.176676	-0.190548	0.0138721	0
    Cd(r):	0.690806	0.675656	0.0151493	0
    Cl:	0.561413	0.559681	0.00173191	0
    Cl(f):	0.759651	0.744975	0.014676	0
    Cl(r):	-0.198238	-0.185294	-0.0129441	0
    CmPitch:	0.478945	0.465135	0.01381	0
    CmRoll:	-0.433741	-0.433102	-0.000638602	0
    CmYaw:	-2.05447	-2.04063	-0.0138341	0
    Cs:	1.35678	1.35391	0.00287023	0
    Cs(f):	-1.37608	-1.36368	-0.012399	0
    Cs(r):	2.73286	2.71759	0.0152692	0

    writing force and moment coefficient files.

Time = 45

smoothSolver:  Solving for Ux, Initial residual = 0.00378055, Final residual = 0.00017148, No Iterations 3
smoothSolver:  Solving for Uy, Initial residual = 0.00616916, Final residual = 0.00024324, No Iterations 3
smoothSolver:  Solving for Uz, Initial residual = 0.00603949, Final residual = 0.000237641, No Iterations 3
GAMG:  Solving for p, Initial residual = 0.0305963, Final residual = 0.000188614, No Iterations 5
time step continuity errors : sum local = 0.000226643, global = 2.57571e-06, cumulative = -0.000909955
smoothSolver:  Solving for omega, Initial residual = 0.000664509, Final residual = 1.49008e-05, No Iterations 2
smoothSolver:  Solving for k, Initial residual = 0.00338534, Final residual = 0.000312234, No Iterations 1
ExecutionTime = 195.21 s  ClockTime = 196 s

forceCoeffs forceCoeffs1 write:
    Coefficient	Total	Pressure	Viscous	Internal
    Cd:	0.516327	0.48738	0.0289476	0
    Cd(f):	-0.176414	-0.190251	0.0138372	0
    Cd(r):	0.692741	0.677631	0.0151104	0
    Cl:	0.553167	0.551429	0.00173833	0
    Cl(f):	0.751248	0.736601	0.014647	0
    Cl(r):	-0.198081	-0.185172	-0.0129087	0
    CmPitch:	0.474664	0.460887	0.0137779	0
    CmRoll:	-0.434578	-0.433941	-0.000636577	0
    CmYaw:	-2.05469	-2.04087	-0.0138247	0
    Cs:	1.35588	1.35302	0.00286064	0
    Cs(f):	-1.37675	-1.36436	-0.0123944	0
    Cs(r):	2.73263	2.71738	0.015255	0

    writing force and moment coefficient files.

Time = 46

smoothSolver:  Solving for Ux, Initial residual = 0.00374807, Final residual = 0.000168823, No Iterations 3
smoothSolver:  Solving for Uy, Initial residual = 0.00615518, Final residual = 0.000240388, No Iterations 3
smoothSolver:  Solving for Uz, Initial residual = 0.00600926, Final residual = 0.000584091, No Iterations 2
GAMG:  Solving for p, Initial residual = 0.0312, Final residual = 0.000283746, No Iterations 4
time step continuity errors : sum local = 0.000330849, global = -2.86661e-07, cumulative = -0.000910242
smoothSolver:  Solving for omega, Initial residual = 0.000655905, Final residual = 1.46593e-05, No Iterations 2
smoothSolver:  Solving for k, Initial residual = 0.00334933, Final residual = 0.00031289, No Iterations 1
ExecutionTime = 199.02 s  ClockTime = 200 s

forceCoeffs forceCoeffs1 write:
    Coefficient	Total	Pressure	Viscous	Internal
    Cd:	0.517034	0.488166	0.0288681	0
    Cd(f):	-0.17694	-0.19074	0.0137995	0
    Cd(r):	0.693974	0.678906	0.0150685	0
    Cl:	0.54724	0.545495	0.00174472	0
    Cl(f):	0.746244	0.731632	0.0146115	0
    Cl(r):	-0.199004	-0.186137	-0.0128668	0
    CmPitch:	0.472624	0.458885	0.0137391	0
    CmRoll:	-0.435457	-0.434823	-0.000634523	0
    CmYaw:	-2.05426	-2.04045	-0.0138131	0
    Cs:	1.35536	1.35251	0.00285155	0
    Cs(f):	-1.37658	-1.36419	-0.0123873	0
    Cs(r):	2.73194	2.7167	0.0152389	0

    writing force and moment coefficient files.

Time = 47

smoothSolver:  Solving for Ux, Initial residual = 0.00371964, Final residual = 0.00016731, No Iterations 3
smoothSolver:  Solving for Uy, Initial residual = 0.00615155, Final residual = 0.000609073, No Iterations 2
smoothSolver:  Solving for Uz, Initial residual = 0.0059955, Final residual = 0.000587969, No Iterations 2
GAMG:  Solving for p, Initial residual = 0.0305557, Final residual = 0.000187718, No Iterations 5
time step continuity errors : sum local = 0.000226162, global = 5.87355e-06, cumulative = -0.000904368
smoothSolver:  Solving for omega, Initial residual = 0.00064654, Final residual = 1.43524e-05, No Iterations 2
smoothSolver:  Solving for k, Initial residual = 0.00330836, Final residual = 0.000311788, No Iterations 1
ExecutionTime = 202.97 s  ClockTime = 203 s

forceCoeffs forceCoeffs1 write:
    Coefficient	Total	Pressure	Viscous	Internal
    Cd:	0.518885	0.490088	0.0287966	0
    Cd(f):	-0.176926	-0.190691	0.0137652	0
    Cd(r):	0.69581	0.680779	0.0150314	0
    Cl:	0.538906	0.537161	0.00174487	0
    Cl(f):	0.738322	0.723742	0.0145792	0
    Cl(r):	-0.199416	-0.186581	-0.0128343	0
    CmPitch:	0.468869	0.455162	0.0137067	0
    CmRoll:	-0.436368	-0.435735	-0.000633074	0
    CmYaw:	-2.05501	-2.04121	-0.0138043	0
    Cs:	1.35482	1.35198	0.00284097	0
    Cs(f):	-1.37761	-1.36522	-0.0123838	0
    Cs(r):	2.73242	2.7172	0.0152248	0

    writing force and moment coefficient files.

Time = 48

smoothSolver:  Solving for Ux, Initial residual = 0.00369184, Final residual = 0.000164241, No Iterations 3
smoothSolver:  Solving for Uy, Initial residual = 0.00614739, Final residual = 0.000241482, No Iterations 3
smoothSolver:  Solving for Uz, Initial residual = 0.00597265, Final residual = 0.000586831, No Iterations 2
GAMG:  Solving for p, Initial residual = 0.0322218, Final residual = 0.000298617, No Iterations 4
time step continuity errors : sum local = 0.000342277, global = 6.60329e-06, cumulative = -0.000897765
smoothSolver:  Solving for omega, Initial residual = 0.000636204, Final residual = 1.40757e-05, No Iterations 2
smoothSolver:  Solving for k, Initial residual = 0.00327672, Final residual = 0.000312161, No Iterations 1
ExecutionTime = 207.52 s  ClockTime = 208 s

forceCoeffs forceCoeffs1 write:
    Coefficient	Total	Pressure	Viscous	Internal
    Cd:	0.519386	0.490664	0.0287213	0
    Cd(f):	-0.17768	-0.191409	0.0137296	0
    Cd(r):	0.697065	0.682074	0.0149917	0
    Cl:	0.532952	0.531204	0.00174809	0
    Cl(f):	0.733032	0.718492	0.0145404	0
    Cl(r):	-0.20008	-0.187288	-0.0127923	0
    CmPitch:	0.466556	0.45289	0.0136663	0
    CmRoll:	-0.437372	-0.436741	-0.000631035	0
    CmYaw:	-2.05501	-2.04122	-0.013791	0
    Cs:	1.3545	1.35167	0.00282975	0
    Cs(f):	-1.37776	-1.36538	-0.0123761	0
    Cs(r):	2.73226	2.71705	0.0152058	0

    writing force and moment coefficient files.

Time = 49

smoothSolver:  Solving for Ux, Initial residual = 0.00365138, Final residual = 0.000161369, No Iterations 3
smoothSolver:  Solving for Uy, Initial residual = 0.0061386, Final residual = 0.0006123, No Iterations 2
smoothSolver:  Solving for Uz, Initial residual = 0.00595374, Final residual = 0.000590459, No Iterations 2
GAMG:  Solving for p, Initial residual = 0.0303352, Final residual = 0.000300834, No Iterations 4
time step continuity errors : sum local = 0.000363564, global = 9.98654e-06, cumulative = -0.000887778
smoothSolver:  Solving for omega, Initial residual = 0.000626254, Final residual = 1.37487e-05, No Iterations 2
smoothSolver:  Solving for k, Initial residual = 0.00323002, Final residual = 0.000309774, No Iterations 1
ExecutionTime = 212.55 s  ClockTime = 213 s

forceCoeffs forceCoeffs1 write:
    Coefficient	Total	Pressure	Viscous	Internal
    Cd:	0.520109	0.491447	0.028662	0
    Cd(f):	-0.17828	-0.191981	0.0137016	0
    Cd(r):	0.698389	0.683429	0.0149605	0
    Cl:	0.524532	0.522785	0.00174732	0
    Cl(f):	0.724147	0.709641	0.0145059	0
    Cl(r):	-0.199615	-0.186857	-0.0127586	0
    CmPitch:	0.461881	0.448249	0.0136322	0
    CmRoll:	-0.438334	-0.437705	-0.000629436	0
    CmYaw:	-2.0559	-2.04211	-0.0137823	0
    Cs:	1.35409	1.35128	0.00281709	0
    Cs(f):	-1.37885	-1.36648	-0.0123737	0
    Cs(r):	2.73294	2.71775	0.0151908	0

    writing force and moment coefficient files.

Time = 50

smoothSolver:  Solving for Ux, Initial residual = 0.00363037, Final residual = 0.000160267, No Iterations 3
smoothSolver:  Solving for Uy, Initial residual = 0.00615263, Final residual = 0.000244268, No Iterations 3
smoothSolver:  Solving for Uz, Initial residual = 0.00593255, Final residual = 0.000592528, No Iterations 2
GAMG:  Solving for p, Initial residual = 0.0312696, Final residual = 0.000296259, No Iterations 4
time step continuity errors : sum local = 0.000348958, global = 1.17095e-05, cumulative = -0.000876069
smoothSolver:  Solving for omega, Initial residual = 0.00061693, Final residual = 1.34686e-05, No Iterations 2
smoothSolver:  Solving for k, Initial residual = 0.00319944, Final residual = 0.000309459, No Iterations 1
ExecutionTime = 216.79 s  ClockTime = 217 s

forceCoeffs forceCoeffs1 write:
    Coefficient	Total	Pressure	Viscous	Internal
    Cd:	0.520587	0.491988	0.0285994	0
    Cd(f):	-0.179552	-0.193223	0.0136715	0
    Cd(r):	0.700139	0.685211	0.0149279	0
    Cl:	0.51488	0.513136	0.00174342	0
    Cl(f):	0.714863	0.700396	0.0144673	0
    Cl(r):	-0.199984	-0.18726	-0.0127239	0
    CmPitch:	0.457424	0.443828	0.0135956	0
    CmRoll:	-0.439846	-0.439217	-0.000628235	0
    CmYaw:	-2.05585	-2.04208	-0.0137686	0
    Cs:	1.35374	1.35094	0.00280375	0
    Cs(f):	-1.37898	-1.36661	-0.0123667	0
    Cs(r):	2.73272	2.71755	0.0151704	0

    writing force and moment coefficient files.

Time = 51

smoothSolver:  Solving for Ux, Initial residual = 0.00360234, Final residual = 0.00015846, No Iterations 3
smoothSolver:  Solving for Uy, Initial residual = 0.0061409, Final residual = 0.000238017, No Iterations 3
smoothSolver:  Solving for Uz, Initial residual = 0.00591439, Final residual = 0.000590689, No Iterations 2
GAMG:  Solving for p, Initial residual = 0.0305467, Final residual = 0.000290837, No Iterations 4
time step continuity errors : sum local = 0.000347945, global = 1.52747e-05, cumulative = -0.000860794
smoothSolver:  Solving for omega, Initial residual = 0.000607547, Final residual = 1.31896e-05, No Iterations 2
smoothSolver:  Solving for k, Initial residual = 0.00315823, Final residual = 0.000307138, No Iterations 1
ExecutionTime = 220.53 s  ClockTime = 221 s

forceCoeffs forceCoeffs1 write:
    Coefficient	Total	Pressure	Viscous	Internal
    Cd:	0.520919	0.492373	0.0285458	0
    Cd(f):	-0.18039	-0.194036	0.0136464	0
    Cd(r):	0.701309	0.68641	0.0148993	0
    Cl:	0.506634	0.504895	0.00173848	0
    Cl(f):	0.706341	0.69191	0.0144314	0
    Cl(r):	-0.199708	-0.187015	-0.0126929	0
    CmPitch:	0.453025	0.439462	0.0135622	0
    CmRoll:	-0.44085	-0.440223	-0.000626434	0
    CmYaw:	-2.0562	-2.04244	-0.0137591	0
    Cs:	1.35341	1.35062	0.00278817	0
    Cs(f):	-1.37949	-1.36713	-0.012365	0
    Cs(r):	2.7329	2.71775	0.0151532	0

    writing force and moment coefficient files.

Time = 52

smoothSolver:  Solving for Ux, Initial residual = 0.00357417, Final residual = 0.000156055, No Iterations 3
smoothSolver:  Solving for Uy, Initial residual = 0.00613959, Final residual = 0.000600534, No Iterations 2
smoothSolver:  Solving for Uz, Initial residual = 0.00589808, Final residual = 0.000585504, No Iterations 2
GAMG:  Solving for p, Initial residual = 0.0306589, Final residual = 0.000279822, No Iterations 4
time step continuity errors : sum local = 0.000335951, global = 1.63268e-05, cumulative = -0.000844467
smoothSolver:  Solving for omega, Initial residual = 0.000596547, Final residual = 1.28971e-05, No Iterations 2
smoothSolver:  Solving for k, Initial residual = 0.00311986, Final residual = 0.000304514, No Iterations 1
ExecutionTime = 224.57 s  ClockTime = 225 s

forceCoeffs forceCoeffs1 write:
    Coefficient	Total	Pressure	Viscous	Internal
    Cd:	0.520012	0.491509	0.0285023	0
    Cd(f):	-0.182527	-0.196153	0.0136258	0
    Cd(r):	0.702539	0.687662	0.0148766	0
    Cl:	0.497161	0.495429	0.00173273	0
    Cl(f):	0.697494	0.683097	0.0143964	0
    Cl(r):	-0.200332	-0.187669	-0.0126637	0
    CmPitch:	0.448913	0.435383	0.0135301	0
    CmRoll:	-0.442533	-0.441908	-0.000625402	0
    CmYaw:	-2.05583	-2.04208	-0.0137478	0
    Cs:	1.35385	1.35107	0.00277251	0
    Cs(f):	-1.3789	-1.36654	-0.0123615	0
    Cs(r):	2.73275	2.71761	0.015134	0

    writing force and moment coefficient files.

Time = 53

smoothSolver:  Solving for Ux, Initial residual = 0.00354578, Final residual = 0.000154413, No Iterations 3
smoothSolver:  Solving for Uy, Initial residual = 0.00614005, Final residual = 0.000238829, No Iterations 3
smoothSolver:  Solving for Uz, Initial residual = 0.00586254, Final residual = 0.000580757, No Iterations 2
GAMG:  Solving for p, Initial residual = 0.0304145, Final residual = 0.000266299, No Iterations 4
time step continuity errors : sum local = 0.000321006, global = 1.17672e-05, cumulative = -0.0008327
smoothSolver:  Solving for omega, Initial residual = 0.000588041, Final residual = 1.2692e-05, No Iterations 2
smoothSolver:  Solving for k, Initial residual = 0.0030821, Final residual = 0.000302752, No Iterations 1
ExecutionTime = 228.86 s  ClockTime = 229 s

forceCoeffs forceCoeffs1 write:
    Coefficient	Total	Pressure	Viscous	Internal
    Cd:	0.520879	0.492416	0.0284632	0
    Cd(f):	-0.1836	-0.197207	0.0136063	0
    Cd(r):	0.70448	0.689623	0.014857	0
    Cl:	0.487404	0.485685	0.00171917	0
    Cl(f):	0.68832	0.673963	0.0143564	0
    Cl(r):	-0.200916	-0.188279	-0.0126372	0
    CmPitch:	0.444618	0.431121	0.0134968	0
    CmRoll:	-0.44404	-0.443415	-0.000625341	0
    CmYaw:	-2.05679	-2.04305	-0.0137398	0
    Cs:	1.35443	1.35167	0.002756	0
    Cs(f):	-1.37957	-1.36721	-0.0123618	0
    Cs(r):	2.734	2.71888	0.0151178	0

    writing force and moment coefficient files.

Time = 54

smoothSolver:  Solving for Ux, Initial residual = 0.00351611, Final residual = 0.000153436, No Iterations 3
smoothSolver:  Solving for Uy, Initial residual = 0.00613516, Final residual = 0.00060873, No Iterations 2
smoothSolver:  Solving for Uz, Initial residual = 0.00585235, Final residual = 0.000577195, No Iterations 2
GAMG:  Solving for p, Initial residual = 0.0304014, Final residual = 0.000250496, No Iterations 4
time step continuity errors : sum local = 0.000304322, global = 2.42401e-06, cumulative = -0.000830276
smoothSolver:  Solving for omega, Initial residual = 0.000580311, Final residual = 1.24947e-05, No Iterations 2
smoothSolver:  Solving for k, Initial residual = 0.00304289, Final residual = 0.00030027, No Iterations 1
ExecutionTime = 233.16 s  ClockTime = 234 s

forceCoeffs forceCoeffs1 write:
    Coefficient	Total	Pressure	Viscous	Internal
    Cd:	0.520408	0.49197	0.0284377	0
    Cd(f):	-0.185811	-0.199403	0.0135927	0
    Cd(r):	0.706219	0.691374	0.014845	0
    Cl:	0.476057	0.474349	0.00170782	0
    Cl(f):	0.677923	0.663599	0.0143244	0
    Cl(r):	-0.201866	-0.189249	-0.0126166	0
    CmPitch:	0.439894	0.426424	0.0134705	0
    CmRoll:	-0.446015	-0.445389	-0.000626129	0
    CmYaw:	-2.05639	-2.04266	-0.0137339	0
    Cs:	1.35501	1.35226	0.00274259	0
    Cs(f):	-1.37889	-1.36653	-0.0123626	0
    Cs(r):	2.7339	2.71879	0.0151052	0

    writing force and moment coefficient files.

Time = 55

smoothSolver:  Solving for Ux, Initial residual = 0.00349132, Final residual = 0.000151696, No Iterations 3
smoothSolver:  Solving for Uy, Initial residual = 0.00613815, Final residual = 0.000241448, No Iterations 3
smoothSolver:  Solving for Uz, Initial residual = 0.00582227, Final residual = 0.000574043, No Iterations 2
GAMG:  Solving for p, Initial residual = 0.0305274, Final residual = 0.000247172, No Iterations 4
[...]
time step continuity errors : sum local = 0.00014617, global = 2.56979e-06, cumulative = -0.00201972
smoothSolver:  Solving for omega, Initial residual = 8.47111e-05, Final residual = 1.68927e-06, No Iterations 2
smoothSolver:  Solving for k, Initial residual = 0.000305089, Final residual = 6.24481e-06, No Iterations 2
ExecutionTime = 4905.72 s  ClockTime = 4916 s

forceCoeffs forceCoeffs1 write:
    Coefficient	Total	Pressure	Viscous	Internal
    Cd:	0.354306	0.314012	0.0402941	0
    Cd(f):	-0.301544	-0.320665	0.0191206	0
    Cd(r):	0.65585	0.634676	0.0211735	0
    Cl:	0.0723744	0.0716645	0.000709834	0
    Cl(f):	0.226826	0.208892	0.0179338	0
    Cl(r):	-0.154452	-0.137228	-0.017224	0
    CmPitch:	0.190639	0.17306	0.0175789	0
    CmRoll:	-0.478697	-0.477671	-0.00102643	0
    CmYaw:	-1.9214	-1.90364	-0.0177609	0
    Cs:	1.24339	1.24027	0.00312598	0
    Cs(f):	-1.29971	-1.28351	-0.0161979	0
    Cs(r):	2.5431	2.52377	0.0193239	0

    writing force and moment coefficient files.

Time = 988

smoothSolver:  Solving for Ux, Initial residual = 0.000638463, Final residual = 2.35e-05, No Iterations 3
smoothSolver:  Solving for Uy, Initial residual = 0.00181049, Final residual = 6.95734e-05, No Iterations 3
smoothSolver:  Solving for Uz, Initial residual = 0.00222621, Final residual = 9.73431e-05, No Iterations 3
GAMG:  Solving for p, Initial residual = 0.0169958, Final residual = 0.000121054, No Iterations 4
time step continuity errors : sum local = 0.000148357, global = 4.65344e-06, cumulative = -0.00201507
smoothSolver:  Solving for omega, Initial residual = 8.47351e-05, Final residual = 1.69851e-06, No Iterations 2
smoothSolver:  Solving for k, Initial residual = 0.000304542, Final residual = 6.22521e-06, No Iterations 2
ExecutionTime = 4910.77 s  ClockTime = 4921 s

forceCoeffs forceCoeffs1 write:
    Coefficient	Total	Pressure	Viscous	Internal
    Cd:	0.354122	0.313829	0.0402932	0
    Cd(f):	-0.301596	-0.320717	0.0191203	0
    Cd(r):	0.655719	0.634546	0.0211729	0
    Cl:	0.0722254	0.0715172	0.000708178	0
    Cl(f):	0.227029	0.209098	0.0179312	0
    Cl(r):	-0.154804	-0.137581	-0.017223	0
    CmPitch:	0.190917	0.173339	0.0175771	0
    CmRoll:	-0.478657	-0.477631	-0.00102632	0
    CmYaw:	-1.92174	-1.90399	-0.0177578	0
    Cs:	1.24365	1.24052	0.00312315	0
    Cs(f):	-1.29992	-1.28373	-0.0161962	0
    Cs(r):	2.54357	2.52425	0.0193193	0

    writing force and moment coefficient files.

Time = 989

smoothSolver:  Solving for Ux, Initial residual = 0.000636898, Final residual = 6.30722e-05, No Iterations 2
smoothSolver:  Solving for Uy, Initial residual = 0.00181557, Final residual = 7.00859e-05, No Iterations 3
smoothSolver:  Solving for Uz, Initial residual = 0.00223545, Final residual = 9.81869e-05, No Iterations 3
GAMG:  Solving for p, Initial residual = 0.0170388, Final residual = 0.00011185, No Iterations 4
time step continuity errors : sum local = 0.000138442, global = 5.81495e-06, cumulative = -0.00200925
smoothSolver:  Solving for omega, Initial residual = 8.45773e-05, Final residual = 1.70839e-06, No Iterations 2
smoothSolver:  Solving for k, Initial residual = 0.000303875, Final residual = 6.21252e-06, No Iterations 2
ExecutionTime = 4914.42 s  ClockTime = 4924 s

forceCoeffs forceCoeffs1 write:
    Coefficient	Total	Pressure	Viscous	Internal
    Cd:	0.354065	0.313775	0.0402899	0
    Cd(f):	-0.302088	-0.321207	0.0191181	0
    Cd(r):	0.656154	0.634982	0.0211718	0
    Cl:	0.071481	0.0707736	0.000707473	0
    Cl(f):	0.226035	0.208105	0.0179303	0
    Cl(r):	-0.154554	-0.137331	-0.0172228	0
    CmPitch:	0.190294	0.172718	0.0175765	0
    CmRoll:	-0.479121	-0.478094	-0.00102683	0
    CmYaw:	-1.92389	-1.90614	-0.017756	0
    Cs:	1.24505	1.24193	0.00312401	0
    Cs(f):	-1.30137	-1.28517	-0.016194	0
    Cs(r):	2.54642	2.5271	0.019318	0

    writing force and moment coefficient files.

Time = 990

smoothSolver:  Solving for Ux, Initial residual = 0.000639609, Final residual = 2.35136e-05, No Iterations 3
smoothSolver:  Solving for Uy, Initial residual = 0.00181328, Final residual = 6.95839e-05, No Iterations 3
smoothSolver:  Solving for Uz, Initial residual = 0.00223019, Final residual = 9.75725e-05, No Iterations 3
GAMG:  Solving for p, Initial residual = 0.0170109, Final residual = 0.000116322, No Iterations 4
time step continuity errors : sum local = 0.000142836, global = 6.34785e-06, cumulative = -0.00200291
smoothSolver:  Solving for omega, Initial residual = 8.45108e-05, Final residual = 1.71749e-06, No Iterations 2
smoothSolver:  Solving for k, Initial residual = 0.0003035, Final residual = 6.21524e-06, No Iterations 2
ExecutionTime = 4918.41 s  ClockTime = 4928 s

forceCoeffs forceCoeffs1 write:
    Coefficient	Total	Pressure	Viscous	Internal
    Cd:	0.353445	0.313154	0.0402911	0
    Cd(f):	-0.302281	-0.3214	0.0191187	0
    Cd(r):	0.655726	0.634554	0.0211724	0
    Cl:	0.0726335	0.0719273	0.000706156	0
    Cl(f):	0.228888	0.210959	0.0179288	0
    Cl(r):	-0.156255	-0.139032	-0.0172226	0
    CmPitch:	0.192571	0.174996	0.0175757	0
    CmRoll:	-0.479003	-0.477977	-0.00102683	0
    CmYaw:	-1.92508	-1.90733	-0.0177553	0
    Cs:	1.24573	1.24261	0.00312164	0
    Cs(f):	-1.30221	-1.28602	-0.0161945	0
    Cs(r):	2.54795	2.52863	0.0193161	0

    writing force and moment coefficient files.

Time = 991

smoothSolver:  Solving for Ux, Initial residual = 0.000637753, Final residual = 6.28884e-05, No Iterations 2
smoothSolver:  Solving for Uy, Initial residual = 0.00181284, Final residual = 6.9624e-05, No Iterations 3
smoothSolver:  Solving for Uz, Initial residual = 0.0022363, Final residual = 9.78367e-05, No Iterations 3
GAMG:  Solving for p, Initial residual = 0.0168859, Final residual = 0.000114768, No Iterations 4
time step continuity errors : sum local = 0.000141471, global = 6.41836e-06, cumulative = -0.00199649
smoothSolver:  Solving for omega, Initial residual = 8.43784e-05, Final residual = 1.7251e-06, No Iterations 2
smoothSolver:  Solving for k, Initial residual = 0.000302927, Final residual = 6.22517e-06, No Iterations 2
ExecutionTime = 4922.24 s  ClockTime = 4932 s

forceCoeffs forceCoeffs1 write:
    Coefficient	Total	Pressure	Viscous	Internal
    Cd:	0.353571	0.313282	0.0402884	0
    Cd(f):	-0.3024	-0.321516	0.0191163	0
    Cd(r):	0.65597	0.634798	0.0211721	0
    Cl:	0.0733152	0.0726113	0.00070389	0
    Cl(f):	0.230485	0.21256	0.0179254	0
    Cl(r):	-0.15717	-0.139949	-0.0172215	0
    CmPitch:	0.193828	0.176254	0.0175734	0
    CmRoll:	-0.479185	-0.478157	-0.00102792	0
    CmYaw:	-1.92663	-1.90887	-0.0177575	0
    Cs:	1.2468	1.24367	0.00312441	0
    Cs(f):	-1.30323	-1.28704	-0.0161953	0
    Cs(r):	2.55003	2.53071	0.0193197	0

    writing force and moment coefficient files.

Time = 992

smoothSolver:  Solving for Ux, Initial residual = 0.000638505, Final residual = 2.3418e-05, No Iterations 3
smoothSolver:  Solving for Uy, Initial residual = 0.00180731, Final residual = 6.96158e-05, No Iterations 3
smoothSolver:  Solving for Uz, Initial residual = 0.002224, Final residual = 9.72442e-05, No Iterations 3
GAMG:  Solving for p, Initial residual = 0.0169592, Final residual = 0.00011264, No Iterations 4
time step continuity errors : sum local = 0.000139152, global = 4.98565e-06, cumulative = -0.0019915
smoothSolver:  Solving for omega, Initial residual = 8.41016e-05, Final residual = 1.72795e-06, No Iterations 2
smoothSolver:  Solving for k, Initial residual = 0.000302602, Final residual = 6.2415e-06, No Iterations 2
ExecutionTime = 4926.49 s  ClockTime = 4937 s

forceCoeffs forceCoeffs1 write:
    Coefficient	Total	Pressure	Viscous	Internal
    Cd:	0.353414	0.313129	0.0402856	0
    Cd(f):	-0.302044	-0.321158	0.0191143	0
    Cd(r):	0.655458	0.634287	0.0211713	0
    Cl:	0.0757998	0.0750984	0.000701413	0
    Cl(f):	0.235484	0.217565	0.0179197	0
    Cl(r):	-0.159685	-0.142466	-0.0172182	0
    CmPitch:	0.197584	0.180015	0.017569	0
    CmRoll:	-0.478751	-0.477723	-0.00102853	0
    CmYaw:	-1.9269	-1.90914	-0.0177566	0
    Cs:	1.24694	1.24381	0.00312343	0
    Cs(f):	-1.30343	-1.28723	-0.0161949	0
    Cs(r):	2.55036	2.53105	0.0193184	0

    writing force and moment coefficient files.

Time = 993

smoothSolver:  Solving for Ux, Initial residual = 0.000637012, Final residual = 6.30736e-05, No Iterations 2
smoothSolver:  Solving for Uy, Initial residual = 0.0018098, Final residual = 6.99502e-05, No Iterations 3
smoothSolver:  Solving for Uz, Initial residual = 0.00222822, Final residual = 9.77379e-05, No Iterations 3
GAMG:  Solving for p, Initial residual = 0.0170838, Final residual = 0.00010883, No Iterations 4
time step continuity errors : sum local = 0.000133776, global = 3.52398e-06, cumulative = -0.00198798
smoothSolver:  Solving for omega, Initial residual = 8.40382e-05, Final residual = 1.73691e-06, No Iterations 2
smoothSolver:  Solving for k, Initial residual = 0.000301977, Final residual = 6.25798e-06, No Iterations 2
ExecutionTime = 4930.15 s  ClockTime = 4940 s

forceCoeffs forceCoeffs1 write:
    Coefficient	Total	Pressure	Viscous	Internal
    Cd:	0.353308	0.313022	0.0402861	0
    Cd(f):	-0.302227	-0.321341	0.0191139	0
    Cd(r):	0.655535	0.634363	0.0211722	0
    Cl:	0.0759112	0.0752109	0.000700388	0
    Cl(f):	0.235534	0.217615	0.0179191	0
    Cl(r):	-0.159623	-0.142404	-0.0172188	0
    CmPitch:	0.197579	0.18001	0.017569	0
    CmRoll:	-0.478881	-0.477852	-0.00102915	0
    CmYaw:	-1.9277	-1.90994	-0.0177581	0
    Cs:	1.24745	1.24433	0.0031249	0
    Cs(f):	-1.30398	-1.28778	-0.0161957	0
    Cs(r):	2.55143	2.53211	0.0193206	0

    writing force and moment coefficient files.

Time = 994

smoothSolver:  Solving for Ux, Initial residual = 0.000638249, Final residual = 2.34235e-05, No Iterations 3
smoothSolver:  Solving for Uy, Initial residual = 0.00180377, Final residual = 6.89944e-05, No Iterations 3
smoothSolver:  Solving for Uz, Initial residual = 0.0022204, Final residual = 9.74579e-05, No Iterations 3
GAMG:  Solving for p, Initial residual = 0.0167513, Final residual = 0.000117521, No Iterations 4
time step continuity errors : sum local = 0.000145984, global = 2.52475e-06, cumulative = -0.00198545
smoothSolver:  Solving for omega, Initial residual = 8.38772e-05, Final residual = 1.74503e-06, No Iterations 2
smoothSolver:  Solving for k, Initial residual = 0.000301884, Final residual = 6.27538e-06, No Iterations 2
ExecutionTime = 4934.36 s  ClockTime = 4944 s

forceCoeffs forceCoeffs1 write:
    Coefficient	Total	Pressure	Viscous	Internal
    Cd:	0.35333	0.313044	0.0402861	0
    Cd(f):	-0.301817	-0.32093	0.0191134	0
    Cd(r):	0.655147	0.633974	0.0211727	0
    Cl:	0.0776394	0.0769419	0.000697498	0
    Cl(f):	0.238473	0.220561	0.0179124	0
    Cl(r):	-0.160834	-0.143619	-0.0172149	0
    CmPitch:	0.199654	0.18209	0.0175636	0
    CmRoll:	-0.478482	-0.477452	-0.00102967	0
    CmYaw:	-1.92743	-1.90967	-0.0177581	0
    Cs:	1.24705	1.24393	0.00312302	0
    Cs(f):	-1.3039	-1.28771	-0.0161966	0
    Cs(r):	2.55095	2.53163	0.0193196	0

    writing force and moment coefficient files.

Time = 995

smoothSolver:  Solving for Ux, Initial residual = 0.000636762, Final residual = 6.36059e-05, No Iterations 2
smoothSolver:  Solving for Uy, Initial residual = 0.00180181, Final residual = 6.93075e-05, No Iterations 3
smoothSolver:  Solving for Uz, Initial residual = 0.00222179, Final residual = 9.7949e-05, No Iterations 3
GAMG:  Solving for p, Initial residual = 0.0169785, Final residual = 0.000111553, No Iterations 4
time step continuity errors : sum local = 0.000136241, global = 2.00269e-06, cumulative = -0.00198345
smoothSolver:  Solving for omega, Initial residual = 8.40137e-05, Final residual = 1.76561e-06, No Iterations 2
smoothSolver:  Solving for k, Initial residual = 0.000301543, Final residual = 6.28436e-06, No Iterations 2
ExecutionTime = 4939.38 s  ClockTime = 4949 s

forceCoeffs forceCoeffs1 write:
    Coefficient	Total	Pressure	Viscous	Internal
    Cd:	0.353467	0.313183	0.0402847	0
    Cd(f):	-0.301985	-0.321096	0.0191115	0
    Cd(r):	0.655452	0.634279	0.0211733	0
    Cl:	0.0771281	0.0764324	0.000695692	0
    Cl(f):	0.237094	0.219186	0.0179084	0
    Cl(r):	-0.159966	-0.142754	-0.0172127	0
    CmPitch:	0.19853	0.18097	0.0175606	0
    CmRoll:	-0.478719	-0.477688	-0.0010309	0
    CmYaw:	-1.92767	-1.90991	-0.0177607	0
    Cs:	1.24728	1.24415	0.00312638	0
    Cs(f):	-1.30403	-1.28783	-0.0161976	0
    Cs(r):	2.55131	2.53198	0.0193239	0

    writing force and moment coefficient files.

Time = 996

smoothSolver:  Solving for Ux, Initial residual = 0.000636608, Final residual = 2.35594e-05, No Iterations 3
smoothSolver:  Solving for Uy, Initial residual = 0.00179679, Final residual = 6.87769e-05, No Iterations 3
smoothSolver:  Solving for Uz, Initial residual = 0.00221636, Final residual = 9.74589e-05, No Iterations 3
GAMG:  Solving for p, Initial residual = 0.0169398, Final residual = 0.0001134, No Iterations 4
time step continuity errors : sum local = 0.000140605, global = 5.05761e-07, cumulative = -0.00198294
smoothSolver:  Solving for omega, Initial residual = 8.4024e-05, Final residual = 1.77105e-06, No Iterations 2
smoothSolver:  Solving for k, Initial residual = 0.000301482, Final residual = 6.29195e-06, No Iterations 2
ExecutionTime = 4944.47 s  ClockTime = 4955 s

forceCoeffs forceCoeffs1 write:
    Coefficient	Total	Pressure	Viscous	Internal
    Cd:	0.353306	0.313019	0.040287	0
    Cd(f):	-0.301721	-0.320833	0.0191124	0
    Cd(r):	0.655027	0.633853	0.0211746	0
    Cl:	0.0785141	0.0778203	0.000693762	0
    Cl(f):	0.239872	0.221967	0.0179047	0
    Cl(r):	-0.161358	-0.144147	-0.017211	0
    CmPitch:	0.200615	0.183057	0.0175578	0
    CmRoll:	-0.478374	-0.477343	-0.00103114	0
    CmYaw:	-1.92683	-1.90907	-0.0177586	0
    Cs:	1.24665	1.24353	0.00312341	0
    Cs(f):	-1.3035	-1.28731	-0.0161969	0
    Cs(r):	2.55015	2.53083	0.0193203	0

    writing force and moment coefficient files.

Time = 997

smoothSolver:  Solving for Ux, Initial residual = 0.000633905, Final residual = 2.32026e-05, No Iterations 3
smoothSolver:  Solving for Uy, Initial residual = 0.0017976, Final residual = 6.88531e-05, No Iterations 3
smoothSolver:  Solving for Uz, Initial residual = 0.00221366, Final residual = 9.76239e-05, No Iterations 3
GAMG:  Solving for p, Initial residual = 0.0168544, Final residual = 0.000121023, No Iterations 4
time step continuity errors : sum local = 0.000148043, global = -1.4241e-06, cumulative = -0.00198437
smoothSolver:  Solving for omega, Initial residual = 8.39343e-05, Final residual = 1.76399e-06, No Iterations 2
smoothSolver:  Solving for k, Initial residual = 0.000301653, Final residual = 6.2909e-06, No Iterations 2
ExecutionTime = 4949.3 s  ClockTime = 4959 s

forceCoeffs forceCoeffs1 write:
    Coefficient	Total	Pressure	Viscous	Internal
    Cd:	0.353621	0.313333	0.0402879	0
    Cd(f):	-0.301796	-0.320908	0.0191118	0
    Cd(r):	0.655416	0.63424	0.0211761	0
    Cl:	0.0778537	0.0771617	0.000691976	0
    Cl(f):	0.238457	0.220555	0.0179017	0
    Cl(r):	-0.160603	-0.143394	-0.0172097	0
    CmPitch:	0.19953	0.181975	0.0175557	0
    CmRoll:	-0.478606	-0.477574	-0.00103216	0
    CmYaw:	-1.9267	-1.90894	-0.0177612	0
    Cs:	1.24655	1.24342	0.00312573	0
    Cs(f):	-1.30343	-1.28723	-0.0161983	0
    Cs(r):	2.54998	2.53065	0.0193241	0

    writing force and moment coefficient files.

Time = 998

smoothSolver:  Solving for Ux, Initial residual = 0.000632202, Final residual = 6.28405e-05, No Iterations 2
smoothSolver:  Solving for Uy, Initial residual = 0.0017972, Final residual = 6.84525e-05, No Iterations 3
smoothSolver:  Solving for Uz, Initial residual = 0.00221387, Final residual = 9.77887e-05, No Iterations 3
GAMG:  Solving for p, Initial residual = 0.0170032, Final residual = 0.000112494, No Iterations 4
time step continuity errors : sum local = 0.000138958, global = -1.84019e-06, cumulative = -0.00198621
smoothSolver:  Solving for omega, Initial residual = 8.40912e-05, Final residual = 1.75641e-06, No Iterations 2
smoothSolver:  Solving for k, Initial residual = 0.000301626, Final residual = 6.2799e-06, No Iterations 2
ExecutionTime = 4954.87 s  ClockTime = 4965 s

forceCoeffs forceCoeffs1 write:
    Coefficient	Total	Pressure	Viscous	Internal
    Cd:	0.353796	0.313505	0.0402904	0
    Cd(f):	-0.30153	-0.320643	0.0191124	0
    Cd(r):	0.655326	0.634148	0.021178	0
    Cl:	0.0782093	0.0775189	0.000690368	0
    Cl(f):	0.238775	0.220878	0.0178968	0
    Cl(r):	-0.160565	-0.143359	-0.0172065	0
    CmPitch:	0.19967	0.182118	0.0175517	0
    CmRoll:	-0.478428	-0.477395	-0.00103282	0
    CmYaw:	-1.92548	-1.90772	-0.0177629	0
    Cs:	1.24572	1.24259	0.00312548	0
    Cs(f):	-1.30262	-1.28642	-0.0162002	0
    Cs(r):	2.54834	2.52901	0.0193256	0

    writing force and moment coefficient files.

Time = 999

smoothSolver:  Solving for Ux, Initial residual = 0.000636658, Final residual = 2.33107e-05, No Iterations 3
smoothSolver:  Solving for Uy, Initial residual = 0.00179358, Final residual = 6.80933e-05, No Iterations 3
smoothSolver:  Solving for Uz, Initial residual = 0.00220423, Final residual = 9.7433e-05, No Iterations 3
GAMG:  Solving for p, Initial residual = 0.0166833, Final residual = 0.000111439, No Iterations 4
time step continuity errors : sum local = 0.000136037, global = -3.00258e-06, cumulative = -0.00198921
smoothSolver:  Solving for omega, Initial residual = 8.4064e-05, Final residual = 1.75969e-06, No Iterations 2
smoothSolver:  Solving for k, Initial residual = 0.000302076, Final residual = 6.28104e-06, No Iterations 2
ExecutionTime = 4961.1 s  ClockTime = 4971 s

forceCoeffs forceCoeffs1 write:
    Coefficient	Total	Pressure	Viscous	Internal
    Cd:	0.353819	0.313527	0.0402918	0
    Cd(f):	-0.301824	-0.320936	0.0191124	0
    Cd(r):	0.655643	0.634463	0.0211794	0
    Cl:	0.0763657	0.0756758	0.0006899	0
    Cl(f):	0.235134	0.217237	0.0178971	0
    Cl(r):	-0.158768	-0.141561	-0.0172072	0
    CmPitch:	0.196951	0.179399	0.0175522	0
    CmRoll:	-0.478733	-0.4777	-0.00103351	0
    CmYaw:	-1.92441	-1.90664	-0.0177664	0
    Cs:	1.24525	1.24212	0.0031289	0
    Cs(f):	-1.30178	-1.28558	-0.0162019	0
    Cs(r):	2.54703	2.5277	0.0193308	0

    writing force and moment coefficient files.

Time = 1000

smoothSolver:  Solving for Ux, Initial residual = 0.000632264, Final residual = 2.33439e-05, No Iterations 3
smoothSolver:  Solving for Uy, Initial residual = 0.00179366, Final residual = 6.7948e-05, No Iterations 3
smoothSolver:  Solving for Uz, Initial residual = 0.00220918, Final residual = 9.76869e-05, No Iterations 3
GAMG:  Solving for p, Initial residual = 0.0163987, Final residual = 0.000116679, No Iterations 4
time step continuity errors : sum local = 0.000143287, global = -4.87544e-06, cumulative = -0.00199409
smoothSolver:  Solving for omega, Initial residual = 8.40083e-05, Final residual = 1.7475e-06, No Iterations 2
smoothSolver:  Solving for k, Initial residual = 0.000302269, Final residual = 6.28053e-06, No Iterations 2
ExecutionTime = 4966.87 s  ClockTime = 4977 s

forceCoeffs forceCoeffs1 write:
    Coefficient	Total	Pressure	Viscous	Internal
    Cd:	0.354254	0.313961	0.0402933	0
    Cd(f):	-0.301544	-0.320657	0.019113	0
    Cd(r):	0.655798	0.634618	0.0211802	0
    Cl:	0.075633	0.0749445	0.000688538	0
    Cl(f):	0.234	0.216106	0.017894	0
    Cl(r):	-0.158367	-0.141161	-0.0172055	0
    CmPitch:	0.196183	0.178633	0.0175498	0
    CmRoll:	-0.478671	-0.477638	-0.00103359	0
    CmYaw:	-1.92257	-1.9048	-0.0177665	0
    Cs:	1.24417	1.24104	0.00312776	0
    Cs(f):	-1.30048	-1.28428	-0.0162026	0
    Cs(r):	2.54465	2.52532	0.0193303	0

    writing force and moment coefficient files.

yPlus yPlus write:
    writing field yPlus
    patch body y+ : min = 17.3143, max = 230.722, average = 71.182
    patch head y+ : min = 6.18558, max = 163.291, average = 68.0185
    patch leg y+ : min = 14.0121, max = 82.0808, average = 49.7845
    patch slant y+ : min = 26.2477, max = 567.251, average = 55.639
    patch ground y+ : min = 38.7148, max = 7513.73, average = 487.684
End

